data_image0
_chemical_formula_structural       O114Si53O114Si53O114Si2AlSi50O115Si13AlSi23AlSi15O115Si53O115Si53O115Si53O115Si53O115Si20AlSi32O114Si53O114AlSi13AlSi26AlSi11O114Si31AlSi21H204
_chemical_formula_sum              "O1374 Si628 Al8 H204"
_cell_length_a       40.18
_cell_length_b       39.476
_cell_length_c       39.426
_cell_angle_alpha    90
_cell_angle_beta     90
_cell_angle_gamma    90

_space_group_name_H-M_alt    "P 1"
_space_group_IT_number       1

loop_
  _space_group_symop_operation_xyz
  'x, y, z'

loop_
  _atom_site_type_symbol
  _atom_site_label
  _atom_site_symmetry_multiplicity
  _atom_site_fract_x
  _atom_site_fract_y
  _atom_site_fract_z
  _atom_site_occupancy
  O   O1        1.0  0.25060  0.03495  0.23393  1.0000
  O   O2        1.0  0.25060  0.21505  0.23393  1.0000
  O   O3        1.0  0.00060  0.21505  0.26607  1.0000
  O   O4        1.0  0.00060  0.03495  0.26607  1.0000
  O   O5        1.0  0.19375  0.03715  0.26693  1.0000
  O   O6        1.0  0.05625  0.28715  0.10027  1.0000
  O   O7        1.0  0.19375  0.21285  0.26693  1.0000
  O   O8        1.0  0.05625  0.46285  0.10027  1.0000
  O   O9        1.0  0.44375  0.03715  0.23307  1.0000
  O   O10       1.0  0.19975  0.06830  0.20837  1.0000
  O   O11       1.0  0.05025  0.31830  0.04170  1.0000
  O   O12       1.0  0.19975  0.18170  0.20837  1.0000
  O   O13       1.0  0.05025  0.43170  0.04170  1.0000
  O   O14       1.0  0.44975  0.06830  0.29163  1.0000
  O   O15       1.0  0.19860  0.00170  0.21087  1.0000
  O   O16       1.0  0.05140  0.25170  0.04420  1.0000
  O   O17       1.0  0.19860  0.24830  0.21087  1.0000
  O   O18       1.0  0.05140  0.49830  0.04420  1.0000
  O   O19       1.0  0.44860  0.00170  0.28913  1.0000
  O   O20       1.0  0.16450  0.01925  0.32407  1.0000
  O   O21       1.0  0.08550  0.26925  0.15740  1.0000
  O   O22       1.0  0.16450  0.23075  0.32407  1.0000
  O   O23       1.0  0.08550  0.48075  0.15740  1.0000
  O   O24       1.0  0.41450  0.01925  0.17593  1.0000
  O   O25       1.0  0.08515  0.22775  0.10517  1.0000
  O   O26       1.0  0.16485  0.27225  0.27183  1.0000
  O   O27       1.0  0.08515  0.02225  0.10517  1.0000
  O   O28       1.0  0.33515  0.02225  0.06150  1.0000
  O   O29       1.0  0.12855  0.03315  0.27020  1.0000
  O   O30       1.0  0.12145  0.28315  0.10353  1.0000
  O   O31       1.0  0.12855  0.21685  0.27020  1.0000
  O   O32       1.0  0.12145  0.46685  0.10353  1.0000
  O   O33       1.0  0.37855  0.03315  0.22980  1.0000
  O   O34       1.0  0.14550  0.06480  0.03533  1.0000
  O   O35       1.0  0.10450  0.31480  0.20200  1.0000
  O   O36       1.0  0.14550  0.18520  0.03533  1.0000
  O   O37       1.0  0.10450  0.43520  0.20200  1.0000
  O   O38       1.0  0.39550  0.06480  0.13133  1.0000
  O   O39       1.0  0.10170  0.02275  0.00917  1.0000
  O   O40       1.0  0.14830  0.27275  0.17583  1.0000
  O   O41       1.0  0.10170  0.22725  0.00917  1.0000
  O   O42       1.0  0.14830  0.47725  0.17583  1.0000
  O   O43       1.0  0.35170  0.02275  0.15750  1.0000
  O   O44       1.0  0.14680  0.00050  0.05213  1.0000
  O   O45       1.0  0.10320  0.25050  0.21880  1.0000
  O   O46       1.0  0.14680  0.24950  0.05213  1.0000
  O   O47       1.0  0.10320  0.49950  0.21880  1.0000
  O   O48       1.0  0.39680  0.00050  0.11453  1.0000
  O   O49       1.0  0.05375  0.06325  0.02943  1.0000
  O   O50       1.0  0.19625  0.31325  0.19610  1.0000
  O   O51       1.0  0.05375  0.18675  0.02943  1.0000
  O   O52       1.0  0.30375  0.18675  0.13723  1.0000
  O   O53       1.0  0.30375  0.06325  0.13723  1.0000
  O   O54       1.0  0.04230  0.01850  0.31477  1.0000
  O   O55       1.0  0.20770  0.26850  0.14810  1.0000
  O   O56       1.0  0.04230  0.23150  0.31477  1.0000
  O   O57       1.0  0.29230  0.01850  0.18523  1.0000
  O   O58       1.0  0.06505  0.03905  0.25567  1.0000
  O   O59       1.0  0.18495  0.28905  0.08900  1.0000
  O   O60       1.0  0.06505  0.21095  0.25567  1.0000
  O   O61       1.0  0.31505  0.03905  0.24433  1.0000
  O   O62       1.0  0.03640  0.47945  0.26107  1.0000
  O   O63       1.0  0.21360  0.22945  0.09440  1.0000
  O   O64       1.0  0.03640  0.27055  0.26107  1.0000
  O   O65       1.0  0.21360  0.02055  0.09440  1.0000
  O   O66       1.0  0.46360  0.02055  0.07227  1.0000
  O   O67       1.0  0.11005  0.06565  0.21520  1.0000
  O   O68       1.0  0.13995  0.31565  0.04853  1.0000
  O   O69       1.0  0.11005  0.18435  0.21520  1.0000
  O   O70       1.0  0.36005  0.06565  0.28480  1.0000
  O   O71       1.0  0.00445  0.17740  0.07230  1.0000
  O   O72       1.0  0.00445  0.07260  0.07230  1.0000
  O   O73       1.0  0.25445  0.07260  0.09437  1.0000
  O   O74       1.0  0.25445  0.17740  0.09437  1.0000
  O   O75       1.0  0.06595  0.16555  0.09143  1.0000
  O   O76       1.0  0.18405  0.33445  0.25810  1.0000
  O   O77       1.0  0.06595  0.08445  0.09143  1.0000
  O   O78       1.0  0.31595  0.08445  0.07523  1.0000
  O   O79       1.0  0.31595  0.16555  0.07523  1.0000
  O   O80       1.0  0.03685  0.12500  0.04770  1.0000
  O   O81       1.0  0.28685  0.12500  0.11897  1.0000
  O   O82       1.0  0.08915  0.18055  0.15203  1.0000
  O   O83       1.0  0.16085  0.31945  0.31870  1.0000
  O   O84       1.0  0.08915  0.06945  0.15203  1.0000
  O   O85       1.0  0.33915  0.06945  0.01463  1.0000
  O   O86       1.0  0.12050  0.42910  0.26633  1.0000
  O   O87       1.0  0.12950  0.17910  0.09967  1.0000
  O   O88       1.0  0.12050  0.32090  0.26633  1.0000
  O   O89       1.0  0.12950  0.07090  0.09967  1.0000
  O   O90       1.0  0.37950  0.07090  0.06700  1.0000
  O   O91       1.0  0.14715  0.37500  0.01930  1.0000
  O   O92       1.0  0.10285  0.12500  0.18597  1.0000
  O   O93       1.0  0.35285  0.12500  0.31403  1.0000
  O   O94       1.0  0.09880  0.41565  0.00010  1.0000
  O   O95       1.0  0.15120  0.16565  0.16677  1.0000
  O   O96       1.0  0.09880  0.33435  0.00010  1.0000
  O   O97       1.0  0.15120  0.08435  0.16677  1.0000
  O   O98       1.0  0.40120  0.08435  0.33323  1.0000
  O   O99       1.0  0.04740  0.37500  0.00683  1.0000
  O   O100      1.0  0.20260  0.12500  0.17350  1.0000
  O   O101      1.0  0.45260  0.12500  0.32650  1.0000
  O   O102      1.0  0.04045  0.43350  0.30917  1.0000
  O   O103      1.0  0.20955  0.18350  0.14250  1.0000
  O   O104      1.0  0.04045  0.31650  0.30917  1.0000
  O   O105      1.0  0.20955  0.06650  0.14250  1.0000
  O   O106      1.0  0.45955  0.06650  0.02417  1.0000
  O   O107      1.0  0.05885  0.41850  0.24687  1.0000
  O   O108      1.0  0.19115  0.16850  0.08020  1.0000
  O   O109      1.0  0.05885  0.33150  0.24687  1.0000
  O   O110      1.0  0.19115  0.08150  0.08020  1.0000
  O   O111      1.0  0.44115  0.08150  0.08647  1.0000
  O   O112      1.0  0.10580  0.37500  0.23043  1.0000
  O   O113      1.0  0.14420  0.12500  0.06377  1.0000
  O   O114      1.0  0.39420  0.12500  0.10290  1.0000
  Si  Si1       1.0  0.21070  0.03555  0.22993  1.0000
  Si  Si2       1.0  0.03930  0.28555  0.06327  1.0000
  Si  Si3       1.0  0.21070  0.21445  0.22993  1.0000
  Si  Si4       1.0  0.03930  0.46445  0.06327  1.0000
  Si  Si5       1.0  0.46070  0.03555  0.27007  1.0000
  Si  Si6       1.0  0.16295  0.01680  0.28333  1.0000
  Si  Si7       1.0  0.08705  0.26680  0.11667  1.0000
  Si  Si8       1.0  0.16295  0.23320  0.28333  1.0000
  Si  Si9       1.0  0.08705  0.48320  0.11667  1.0000
  Si  Si10      1.0  0.41295  0.01680  0.21667  1.0000
  Si  Si11      1.0  0.13960  0.02680  0.02183  1.0000
  Si  Si12      1.0  0.11040  0.27680  0.18850  1.0000
  Si  Si13      1.0  0.13960  0.22320  0.02183  1.0000
  Si  Si14      1.0  0.11040  0.47320  0.18850  1.0000
  Si  Si15      1.0  0.38960  0.02680  0.14483  1.0000
  Si  Si16      1.0  0.06230  0.02570  0.01603  1.0000
  Si  Si17      1.0  0.18770  0.27570  0.18270  1.0000
  Si  Si18      1.0  0.06230  0.22430  0.01603  1.0000
  Si  Si19      1.0  0.31230  0.02570  0.15063  1.0000
  Si  Si20      1.0  0.03605  0.01800  0.27443  1.0000
  Si  Si21      1.0  0.03605  0.23200  0.27443  1.0000
  Si  Si22      1.0  0.28605  0.01800  0.22557  1.0000
  Si  Si23      1.0  0.10170  0.03435  0.23990  1.0000
  Si  Si24      1.0  0.14830  0.28435  0.07323  1.0000
  Si  Si25      1.0  0.10170  0.21565  0.23990  1.0000
  Si  Si26      1.0  0.35170  0.03435  0.26010  1.0000
  Si  Si27      1.0  0.04025  0.16370  0.06017  1.0000
  Si  Si28      1.0  0.04025  0.08630  0.06017  1.0000
  Si  Si29      1.0  0.29025  0.08630  0.10650  1.0000
  Si  Si30      1.0  0.29025  0.16370  0.10650  1.0000
  Si  Si31      1.0  0.09240  0.18825  0.11203  1.0000
  Si  Si32      1.0  0.15760  0.31175  0.27870  1.0000
  Si  Si33      1.0  0.09240  0.06175  0.11203  1.0000
  Si  Si34      1.0  0.34240  0.06175  0.05463  1.0000
  Si  Si35      1.0  0.11335  0.16390  0.18007  1.0000
  Si  Si36      1.0  0.13665  0.33610  0.01340  1.0000
  Si  Si37      1.0  0.11335  0.08610  0.18007  1.0000
  Si  Si38      1.0  0.36335  0.08610  0.31993  1.0000
  Si  Si39      1.0  0.05925  0.41395  0.00610  1.0000
  Si  Si40      1.0  0.19075  0.16395  0.17277  1.0000
  Si  Si41      1.0  0.05925  0.33605  0.00610  1.0000
  Si  Si42      1.0  0.19075  0.08605  0.17277  1.0000
  Si  Si43      1.0  0.44075  0.08605  0.32723  1.0000
  Si  Si44      1.0  0.03285  0.43970  0.26957  1.0000
  Si  Si45      1.0  0.21715  0.18970  0.10290  1.0000
  Si  Si46      1.0  0.03285  0.31030  0.26957  1.0000
  Si  Si47      1.0  0.21715  0.06030  0.10290  1.0000
  Si  Si48      1.0  0.46715  0.06030  0.06377  1.0000
  Si  Si49      1.0  0.09735  0.41440  0.23640  1.0000
  Si  Si50      1.0  0.15265  0.16440  0.06973  1.0000
  Si  Si51      1.0  0.09735  0.33560  0.23640  1.0000
  Si  Si52      1.0  0.15265  0.08560  0.06973  1.0000
  Si  Si53      1.0  0.40265  0.08560  0.09693  1.0000
  O   O115      1.0  0.25060  0.03495  0.56727  1.0000
  O   O116      1.0  0.25060  0.21505  0.56727  1.0000
  O   O117      1.0  0.00060  0.21505  0.59940  1.0000
  O   O118      1.0  0.00060  0.03495  0.59940  1.0000
  O   O119      1.0  0.19375  0.03715  0.60027  1.0000
  O   O120      1.0  0.05625  0.28715  0.43360  1.0000
  O   O121      1.0  0.19375  0.21285  0.60027  1.0000
  O   O122      1.0  0.05625  0.46285  0.43360  1.0000
  O   O123      1.0  0.44375  0.03715  0.56640  1.0000
  O   O124      1.0  0.19975  0.06830  0.54170  1.0000
  O   O125      1.0  0.05025  0.31830  0.37503  1.0000
  O   O126      1.0  0.19975  0.18170  0.54170  1.0000
  O   O127      1.0  0.05025  0.43170  0.37503  1.0000
  O   O128      1.0  0.44975  0.06830  0.62497  1.0000
  O   O129      1.0  0.19860  0.00170  0.54420  1.0000
  O   O130      1.0  0.05140  0.25170  0.37753  1.0000
  O   O131      1.0  0.19860  0.24830  0.54420  1.0000
  O   O132      1.0  0.05140  0.49830  0.37753  1.0000
  O   O133      1.0  0.44860  0.00170  0.62247  1.0000
  O   O134      1.0  0.16450  0.01925  0.65740  1.0000
  O   O135      1.0  0.08550  0.26925  0.49073  1.0000
  O   O136      1.0  0.16450  0.23075  0.65740  1.0000
  O   O137      1.0  0.08550  0.48075  0.49073  1.0000
  O   O138      1.0  0.41450  0.01925  0.50927  1.0000
  O   O139      1.0  0.08515  0.22775  0.43850  1.0000
  O   O140      1.0  0.16485  0.27225  0.60517  1.0000
  O   O141      1.0  0.08515  0.02225  0.43850  1.0000
  O   O142      1.0  0.33515  0.02225  0.39483  1.0000
  O   O143      1.0  0.12855  0.03315  0.60353  1.0000
  O   O144      1.0  0.12145  0.28315  0.43687  1.0000
  O   O145      1.0  0.12855  0.21685  0.60353  1.0000
  O   O146      1.0  0.12145  0.46685  0.43687  1.0000
  O   O147      1.0  0.37855  0.03315  0.56313  1.0000
  O   O148      1.0  0.14550  0.06480  0.36867  1.0000
  O   O149      1.0  0.10450  0.31480  0.53533  1.0000
  O   O150      1.0  0.14550  0.18520  0.36867  1.0000
  O   O151      1.0  0.10450  0.43520  0.53533  1.0000
  O   O152      1.0  0.39550  0.06480  0.46467  1.0000
  O   O153      1.0  0.10170  0.02275  0.34250  1.0000
  O   O154      1.0  0.14830  0.27275  0.50917  1.0000
  O   O155      1.0  0.10170  0.22725  0.34250  1.0000
  O   O156      1.0  0.14830  0.47725  0.50917  1.0000
  O   O157      1.0  0.35170  0.02275  0.49083  1.0000
  O   O158      1.0  0.14680  0.00050  0.38547  1.0000
  O   O159      1.0  0.10320  0.25050  0.55213  1.0000
  O   O160      1.0  0.14680  0.24950  0.38547  1.0000
  O   O161      1.0  0.10320  0.49950  0.55213  1.0000
  O   O162      1.0  0.39680  0.00050  0.44787  1.0000
  O   O163      1.0  0.05375  0.06325  0.36277  1.0000
  O   O164      1.0  0.19625  0.31325  0.52943  1.0000
  O   O165      1.0  0.05375  0.18675  0.36277  1.0000
  O   O166      1.0  0.30375  0.18675  0.47057  1.0000
  O   O167      1.0  0.30375  0.06325  0.47057  1.0000
  O   O168      1.0  0.04230  0.01850  0.64810  1.0000
  O   O169      1.0  0.20770  0.26850  0.48143  1.0000
  O   O170      1.0  0.04230  0.23150  0.64810  1.0000
  O   O171      1.0  0.29230  0.01850  0.51857  1.0000
  O   O172      1.0  0.06505  0.03905  0.58900  1.0000
  O   O173      1.0  0.18495  0.28905  0.42233  1.0000
  O   O174      1.0  0.06505  0.21095  0.58900  1.0000
  O   O175      1.0  0.31505  0.03905  0.57767  1.0000
  O   O176      1.0  0.03640  0.47945  0.59440  1.0000
  O   O177      1.0  0.21360  0.22945  0.42773  1.0000
  O   O178      1.0  0.03640  0.27055  0.59440  1.0000
  O   O179      1.0  0.21360  0.02055  0.42773  1.0000
  O   O180      1.0  0.46360  0.02055  0.40560  1.0000
  O   O181      1.0  0.11005  0.06565  0.54853  1.0000
  O   O182      1.0  0.13995  0.31565  0.38187  1.0000
  O   O183      1.0  0.11005  0.18435  0.54853  1.0000
  O   O184      1.0  0.36005  0.06565  0.61813  1.0000
  O   O185      1.0  0.00445  0.17740  0.40563  1.0000
  O   O186      1.0  0.00445  0.07260  0.40563  1.0000
  O   O187      1.0  0.25445  0.07260  0.42770  1.0000
  O   O188      1.0  0.25445  0.17740  0.42770  1.0000
  O   O189      1.0  0.06595  0.16555  0.42477  1.0000
  O   O190      1.0  0.18405  0.33445  0.59143  1.0000
  O   O191      1.0  0.06595  0.08445  0.42477  1.0000
  O   O192      1.0  0.31595  0.08445  0.40857  1.0000
  O   O193      1.0  0.31595  0.16555  0.40857  1.0000
  O   O194      1.0  0.03685  0.12500  0.38103  1.0000
  O   O195      1.0  0.28685  0.12500  0.45230  1.0000
  O   O196      1.0  0.08915  0.18055  0.48537  1.0000
  O   O197      1.0  0.16085  0.31945  0.65203  1.0000
  O   O198      1.0  0.08915  0.06945  0.48537  1.0000
  O   O199      1.0  0.33915  0.06945  0.34797  1.0000
  O   O200      1.0  0.12050  0.42910  0.59967  1.0000
  O   O201      1.0  0.12950  0.17910  0.43300  1.0000
  O   O202      1.0  0.12050  0.32090  0.59967  1.0000
  O   O203      1.0  0.12950  0.07090  0.43300  1.0000
  O   O204      1.0  0.37950  0.07090  0.40033  1.0000
  O   O205      1.0  0.14715  0.37500  0.35263  1.0000
  O   O206      1.0  0.10285  0.12500  0.51930  1.0000
  O   O207      1.0  0.35285  0.12500  0.64737  1.0000
  O   O208      1.0  0.09880  0.41565  0.33343  1.0000
  O   O209      1.0  0.15120  0.16565  0.50010  1.0000
  O   O210      1.0  0.09880  0.33435  0.33343  1.0000
  O   O211      1.0  0.15120  0.08435  0.50010  1.0000
  O   O212      1.0  0.40120  0.08435  0.66657  1.0000
  O   O213      1.0  0.04740  0.37500  0.34017  1.0000
  O   O214      1.0  0.20260  0.12500  0.50683  1.0000
  O   O215      1.0  0.45260  0.12500  0.65983  1.0000
  O   O216      1.0  0.04045  0.43350  0.64250  1.0000
  O   O217      1.0  0.20955  0.18350  0.47583  1.0000
  O   O218      1.0  0.04045  0.31650  0.64250  1.0000
  O   O219      1.0  0.20955  0.06650  0.47583  1.0000
  O   O220      1.0  0.45955  0.06650  0.35750  1.0000
  O   O221      1.0  0.05885  0.41850  0.58020  1.0000
  O   O222      1.0  0.19115  0.16850  0.41353  1.0000
  O   O223      1.0  0.05885  0.33150  0.58020  1.0000
  O   O224      1.0  0.19115  0.08150  0.41353  1.0000
  O   O225      1.0  0.44115  0.08150  0.41980  1.0000
  O   O226      1.0  0.10580  0.37500  0.56377  1.0000
  O   O227      1.0  0.14420  0.12500  0.39710  1.0000
  O   O228      1.0  0.39420  0.12500  0.43623  1.0000
  Si  Si54      1.0  0.21070  0.03555  0.56327  1.0000
  Si  Si55      1.0  0.03930  0.28555  0.39660  1.0000
  Si  Si56      1.0  0.21070  0.21445  0.56327  1.0000
  Si  Si57      1.0  0.03930  0.46445  0.39660  1.0000
  Si  Si58      1.0  0.46070  0.03555  0.60340  1.0000
  Si  Si59      1.0  0.16295  0.01680  0.61667  1.0000
  Si  Si60      1.0  0.08705  0.26680  0.45000  1.0000
  Si  Si61      1.0  0.16295  0.23320  0.61667  1.0000
  Si  Si62      1.0  0.08705  0.48320  0.45000  1.0000
  Si  Si63      1.0  0.41295  0.01680  0.55000  1.0000
  Si  Si64      1.0  0.13960  0.02680  0.35517  1.0000
  Si  Si65      1.0  0.11040  0.27680  0.52183  1.0000
  Si  Si66      1.0  0.13960  0.22320  0.35517  1.0000
  Si  Si67      1.0  0.11040  0.47320  0.52183  1.0000
  Si  Si68      1.0  0.38960  0.02680  0.47817  1.0000
  Si  Si69      1.0  0.06230  0.02570  0.34937  1.0000
  Si  Si70      1.0  0.18770  0.27570  0.51603  1.0000
  Si  Si71      1.0  0.06230  0.22430  0.34937  1.0000
  Si  Si72      1.0  0.31230  0.02570  0.48397  1.0000
  Si  Si73      1.0  0.03605  0.01800  0.60777  1.0000
  Si  Si74      1.0  0.03605  0.23200  0.60777  1.0000
  Si  Si75      1.0  0.28605  0.01800  0.55890  1.0000
  Si  Si76      1.0  0.10170  0.03435  0.57323  1.0000
  Si  Si77      1.0  0.14830  0.28435  0.40657  1.0000
  Si  Si78      1.0  0.10170  0.21565  0.57323  1.0000
  Si  Si79      1.0  0.35170  0.03435  0.59343  1.0000
  Si  Si80      1.0  0.04025  0.16370  0.39350  1.0000
  Si  Si81      1.0  0.04025  0.08630  0.39350  1.0000
  Si  Si82      1.0  0.29025  0.08630  0.43983  1.0000
  Si  Si83      1.0  0.29025  0.16370  0.43983  1.0000
  Si  Si84      1.0  0.09240  0.18825  0.44537  1.0000
  Si  Si85      1.0  0.15760  0.31175  0.61203  1.0000
  Si  Si86      1.0  0.09240  0.06175  0.44537  1.0000
  Si  Si87      1.0  0.34240  0.06175  0.38797  1.0000
  Si  Si88      1.0  0.11335  0.16390  0.51340  1.0000
  Si  Si89      1.0  0.13665  0.33610  0.34673  1.0000
  Si  Si90      1.0  0.11335  0.08610  0.51340  1.0000
  Si  Si91      1.0  0.36335  0.08610  0.65327  1.0000
  Si  Si92      1.0  0.05925  0.41395  0.33943  1.0000
  Si  Si93      1.0  0.19075  0.16395  0.50610  1.0000
  Si  Si94      1.0  0.05925  0.33605  0.33943  1.0000
  Si  Si95      1.0  0.19075  0.08605  0.50610  1.0000
  Si  Si96      1.0  0.44075  0.08605  0.66057  1.0000
  Si  Si97      1.0  0.03285  0.43970  0.60290  1.0000
  Si  Si98      1.0  0.21715  0.18970  0.43623  1.0000
  Si  Si99      1.0  0.03285  0.31030  0.60290  1.0000
  Si  Si100     1.0  0.21715  0.06030  0.43623  1.0000
  Si  Si101     1.0  0.46715  0.06030  0.39710  1.0000
  Si  Si102     1.0  0.09735  0.41440  0.56973  1.0000
  Si  Si103     1.0  0.15265  0.16440  0.40307  1.0000
  Si  Si104     1.0  0.09735  0.33560  0.56973  1.0000
  Si  Si105     1.0  0.15265  0.08560  0.40307  1.0000
  Si  Si106     1.0  0.40265  0.08560  0.43027  1.0000
  O   O229      1.0  0.25060  0.03495  0.90060  1.0000
  O   O230      1.0  0.25060  0.21505  0.90060  1.0000
  O   O231      1.0  0.00060  0.21505  0.93273  1.0000
  O   O232      1.0  0.00060  0.03495  0.93273  1.0000
  O   O233      1.0  0.19375  0.03715  0.93360  1.0000
  O   O234      1.0  0.05625  0.28715  0.76693  1.0000
  O   O235      1.0  0.19375  0.21285  0.93360  1.0000
  O   O236      1.0  0.05625  0.46285  0.76693  1.0000
  O   O237      1.0  0.44375  0.03715  0.89973  1.0000
  O   O238      1.0  0.19975  0.06830  0.87503  1.0000
  O   O239      1.0  0.05025  0.31830  0.70837  1.0000
  O   O240      1.0  0.19975  0.18170  0.87503  1.0000
  O   O241      1.0  0.05025  0.43170  0.70837  1.0000
  O   O242      1.0  0.44975  0.06830  0.95830  1.0000
  O   O243      1.0  0.19860  0.00170  0.87753  1.0000
  O   O244      1.0  0.05140  0.25170  0.71087  1.0000
  O   O245      1.0  0.19860  0.24830  0.87753  1.0000
  O   O246      1.0  0.05140  0.49830  0.71087  1.0000
  O   O247      1.0  0.44860  0.00170  0.95580  1.0000
  O   O248      1.0  0.16450  0.01925  0.99073  1.0000
  O   O249      1.0  0.08550  0.26925  0.82407  1.0000
  O   O250      1.0  0.16450  0.23075  0.99073  1.0000
  O   O251      1.0  0.08550  0.48075  0.82407  1.0000
  O   O252      1.0  0.41450  0.01925  0.84260  1.0000
  O   O253      1.0  0.08515  0.22775  0.77183  1.0000
  O   O254      1.0  0.16485  0.27225  0.93850  1.0000
  O   O255      1.0  0.08515  0.02225  0.77183  1.0000
  O   O256      1.0  0.33515  0.02225  0.72817  1.0000
  O   O257      1.0  0.12855  0.03315  0.93687  1.0000
  O   O258      1.0  0.12145  0.28315  0.77020  1.0000
  O   O259      1.0  0.12855  0.21685  0.93687  1.0000
  O   O260      1.0  0.12145  0.46685  0.77020  1.0000
  O   O261      1.0  0.37855  0.03315  0.89647  1.0000
  O   O262      1.0  0.14550  0.06480  0.70200  1.0000
  O   O263      1.0  0.10450  0.31480  0.86867  1.0000
  O   O264      1.0  0.14550  0.18520  0.70200  1.0000
  O   O265      1.0  0.10450  0.43520  0.86867  1.0000
  O   O266      1.0  0.39550  0.06480  0.79800  1.0000
  O   O267      1.0  0.10170  0.02275  0.67583  1.0000
  O   O268      1.0  0.14830  0.27275  0.84250  1.0000
  O   O269      1.0  0.10170  0.22725  0.67583  1.0000
  O   O270      1.0  0.14830  0.47725  0.84250  1.0000
  O   O271      1.0  0.35170  0.02275  0.82417  1.0000
  O   O272      1.0  0.14680  0.00050  0.71880  1.0000
  O   O273      1.0  0.10320  0.25050  0.88547  1.0000
  O   O274      1.0  0.14680  0.24950  0.71880  1.0000
  O   O275      1.0  0.10320  0.49950  0.88547  1.0000
  O   O276      1.0  0.39680  0.00050  0.78120  1.0000
  O   O277      1.0  0.05375  0.06325  0.69610  1.0000
  O   O278      1.0  0.19625  0.31325  0.86277  1.0000
  O   O279      1.0  0.05375  0.18675  0.69610  1.0000
  O   O280      1.0  0.30375  0.18675  0.80390  1.0000
  O   O281      1.0  0.30375  0.06325  0.80390  1.0000
  O   O282      1.0  0.04230  0.01850  0.98143  1.0000
  O   O283      1.0  0.20770  0.26850  0.81477  1.0000
  O   O284      1.0  0.04230  0.23150  0.98143  1.0000
  O   O285      1.0  0.29230  0.01850  0.85190  1.0000
  O   O286      1.0  0.06505  0.03905  0.92233  1.0000
  O   O287      1.0  0.18495  0.28905  0.75567  1.0000
  O   O288      1.0  0.06505  0.21095  0.92233  1.0000
  O   O289      1.0  0.31505  0.03905  0.91100  1.0000
  O   O290      1.0  0.03640  0.47945  0.92773  1.0000
  O   O291      1.0  0.21360  0.22945  0.76107  1.0000
  O   O292      1.0  0.03640  0.27055  0.92773  1.0000
  O   O293      1.0  0.21360  0.02055  0.76107  1.0000
  O   O294      1.0  0.46360  0.02055  0.73893  1.0000
  O   O295      1.0  0.11005  0.06565  0.88187  1.0000
  O   O296      1.0  0.13995  0.31565  0.71520  1.0000
  O   O297      1.0  0.11005  0.18435  0.88187  1.0000
  O   O298      1.0  0.36005  0.06565  0.95147  1.0000
  O   O299      1.0  0.00445  0.17740  0.73897  1.0000
  O   O300      1.0  0.00445  0.07260  0.73897  1.0000
  O   O301      1.0  0.25445  0.07260  0.76103  1.0000
  O   O302      1.0  0.25445  0.17740  0.76103  1.0000
  O   O303      1.0  0.06595  0.16555  0.75810  1.0000
  O   O304      1.0  0.18405  0.33445  0.92477  1.0000
  O   O305      1.0  0.06595  0.08445  0.75810  1.0000
  O   O306      1.0  0.31595  0.08445  0.74190  1.0000
  O   O307      1.0  0.31595  0.16555  0.74190  1.0000
  O   O308      1.0  0.03685  0.12500  0.71437  1.0000
  O   O309      1.0  0.28685  0.12500  0.78563  1.0000
  O   O310      1.0  0.08915  0.18055  0.81870  1.0000
  O   O311      1.0  0.16085  0.31945  0.98537  1.0000
  O   O312      1.0  0.08915  0.06945  0.81870  1.0000
  O   O313      1.0  0.33915  0.06945  0.68130  1.0000
  O   O314      1.0  0.12050  0.42910  0.93300  1.0000
  O   O315      1.0  0.12950  0.17910  0.76633  1.0000
  O   O316      1.0  0.12050  0.32090  0.93300  1.0000
  O   O317      1.0  0.12950  0.07090  0.76633  1.0000
  O   O318      1.0  0.37950  0.07090  0.73367  1.0000
  O   O319      1.0  0.14715  0.37500  0.68597  1.0000
  O   O320      1.0  0.10285  0.12500  0.85263  1.0000
  O   O321      1.0  0.35285  0.12500  0.98070  1.0000
  O   O322      1.0  0.09880  0.41565  0.66677  1.0000
  O   O323      1.0  0.15120  0.16565  0.83343  1.0000
  O   O324      1.0  0.09880  0.33435  0.66677  1.0000
  O   O325      1.0  0.15120  0.08435  0.83343  1.0000
  O   O326      1.0  0.40120  0.08435  0.99990  1.0000
  O   O327      1.0  0.04740  0.37500  0.67350  1.0000
  O   O328      1.0  0.20260  0.12500  0.84017  1.0000
  O   O329      1.0  0.45260  0.12500  0.99317  1.0000
  O   O330      1.0  0.04045  0.43350  0.97583  1.0000
  O   O331      1.0  0.20955  0.18350  0.80917  1.0000
  O   O332      1.0  0.04045  0.31650  0.97583  1.0000
  O   O333      1.0  0.20955  0.06650  0.80917  1.0000
  O   O334      1.0  0.45955  0.06650  0.69083  1.0000
  O   O335      1.0  0.05885  0.41850  0.91353  1.0000
  O   O336      1.0  0.19115  0.16850  0.74687  1.0000
  O   O337      1.0  0.05885  0.33150  0.91353  1.0000
  O   O338      1.0  0.19115  0.08150  0.74687  1.0000
  O   O339      1.0  0.44115  0.08150  0.75313  1.0000
  O   O340      1.0  0.10580  0.37500  0.89710  1.0000
  O   O341      1.0  0.14420  0.12500  0.73043  1.0000
  O   O342      1.0  0.39420  0.12500  0.76957  1.0000
  Si  Si107     1.0  0.21070  0.03555  0.89660  1.0000
  Si  Si108     1.0  0.03930  0.28555  0.72993  1.0000
  Al  Al1       1.0  0.21070  0.21445  0.89660  1.0000
  Si  Si109     1.0  0.03930  0.46445  0.72993  1.0000
  Si  Si110     1.0  0.46070  0.03555  0.93673  1.0000
  Si  Si111     1.0  0.16295  0.01680  0.95000  1.0000
  Si  Si112     1.0  0.08705  0.26680  0.78333  1.0000
  Si  Si113     1.0  0.16295  0.23320  0.95000  1.0000
  Si  Si114     1.0  0.08705  0.48320  0.78333  1.0000
  Si  Si115     1.0  0.41295  0.01680  0.88333  1.0000
  Si  Si116     1.0  0.13960  0.02680  0.68850  1.0000
  Si  Si117     1.0  0.11040  0.27680  0.85517  1.0000
  Si  Si118     1.0  0.13960  0.22320  0.68850  1.0000
  Si  Si119     1.0  0.11040  0.47320  0.85517  1.0000
  Si  Si120     1.0  0.38960  0.02680  0.81150  1.0000
  Si  Si121     1.0  0.06230  0.02570  0.68270  1.0000
  Si  Si122     1.0  0.18770  0.27570  0.84937  1.0000
  Si  Si123     1.0  0.06230  0.22430  0.68270  1.0000
  Si  Si124     1.0  0.31230  0.02570  0.81730  1.0000
  Si  Si125     1.0  0.03605  0.01800  0.94110  1.0000
  Si  Si126     1.0  0.03605  0.23200  0.94110  1.0000
  Si  Si127     1.0  0.28605  0.01800  0.89223  1.0000
  Si  Si128     1.0  0.10170  0.03435  0.90657  1.0000
  Si  Si129     1.0  0.14830  0.28435  0.73990  1.0000
  Si  Si130     1.0  0.10170  0.21565  0.90657  1.0000
  Si  Si131     1.0  0.35170  0.03435  0.92677  1.0000
  Si  Si132     1.0  0.04025  0.16370  0.72683  1.0000
  Si  Si133     1.0  0.04025  0.08630  0.72683  1.0000
  Si  Si134     1.0  0.29025  0.08630  0.77317  1.0000
  Si  Si135     1.0  0.29025  0.16370  0.77317  1.0000
  Si  Si136     1.0  0.09240  0.18825  0.77870  1.0000
  Si  Si137     1.0  0.15760  0.31175  0.94537  1.0000
  Si  Si138     1.0  0.09240  0.06175  0.77870  1.0000
  Si  Si139     1.0  0.34240  0.06175  0.72130  1.0000
  Si  Si140     1.0  0.11335  0.16390  0.84673  1.0000
  Si  Si141     1.0  0.13665  0.33610  0.68007  1.0000
  Si  Si142     1.0  0.11335  0.08610  0.84673  1.0000
  Si  Si143     1.0  0.36335  0.08610  0.98660  1.0000
  Si  Si144     1.0  0.05925  0.41395  0.67277  1.0000
  Si  Si145     1.0  0.19075  0.16395  0.83943  1.0000
  Si  Si146     1.0  0.05925  0.33605  0.67277  1.0000
  Si  Si147     1.0  0.19075  0.08605  0.83943  1.0000
  Si  Si148     1.0  0.44075  0.08605  0.99390  1.0000
  Si  Si149     1.0  0.03285  0.43970  0.93623  1.0000
  Si  Si150     1.0  0.21715  0.18970  0.76957  1.0000
  Si  Si151     1.0  0.03285  0.31030  0.93623  1.0000
  Si  Si152     1.0  0.21715  0.06030  0.76957  1.0000
  Si  Si153     1.0  0.46715  0.06030  0.73043  1.0000
  Si  Si154     1.0  0.09735  0.41440  0.90307  1.0000
  Si  Si155     1.0  0.15265  0.16440  0.73640  1.0000
  Si  Si156     1.0  0.09735  0.33560  0.90307  1.0000
  Si  Si157     1.0  0.15265  0.08560  0.73640  1.0000
  Si  Si158     1.0  0.40265  0.08560  0.76360  1.0000
  O   O343      1.0  0.49940  0.96505  0.06727  1.0000
  O   O344      1.0  0.24940  0.96505  0.09940  1.0000
  O   O345      1.0  0.00060  0.71505  0.26607  1.0000
  O   O346      1.0  0.24940  0.78495  0.09940  1.0000
  O   O347      1.0  0.00060  0.53495  0.26607  1.0000
  O   O348      1.0  0.05625  0.78715  0.10027  1.0000
  O   O349      1.0  0.19375  0.71285  0.26693  1.0000
  O   O350      1.0  0.05625  0.96285  0.10027  1.0000
  O   O351      1.0  0.30625  0.96285  0.06640  1.0000
  O   O352      1.0  0.05025  0.81830  0.04170  1.0000
  O   O353      1.0  0.05025  0.93170  0.04170  1.0000
  O   O354      1.0  0.30025  0.93170  0.12497  1.0000
  O   O355      1.0  0.30025  0.81830  0.12497  1.0000
  O   O356      1.0  0.05140  0.75170  0.04420  1.0000
  O   O357      1.0  0.19860  0.74830  0.21087  1.0000
  O   O358      1.0  0.05140  0.99830  0.04420  1.0000
  O   O359      1.0  0.30140  0.99830  0.12247  1.0000
  O   O360      1.0  0.08550  0.76925  0.15740  1.0000
  O   O361      1.0  0.16450  0.73075  0.32407  1.0000
  O   O362      1.0  0.08550  0.98075  0.15740  1.0000
  O   O363      1.0  0.33550  0.98075  0.00927  1.0000
  O   O364      1.0  0.16485  0.97775  0.27183  1.0000
  O   O365      1.0  0.08515  0.72775  0.10517  1.0000
  O   O366      1.0  0.16485  0.77225  0.27183  1.0000
  O   O367      1.0  0.08515  0.52225  0.10517  1.0000
  O   O368      1.0  0.41485  0.97775  0.22817  1.0000
  O   O369      1.0  0.12855  0.53315  0.27020  1.0000
  O   O370      1.0  0.12145  0.78315  0.10353  1.0000
  O   O371      1.0  0.12855  0.71685  0.27020  1.0000
  O   O372      1.0  0.12145  0.96685  0.10353  1.0000
  O   O373      1.0  0.37145  0.96685  0.06313  1.0000
  O   O374      1.0  0.10450  0.81480  0.20200  1.0000
  O   O375      1.0  0.14550  0.68520  0.03533  1.0000
  O   O376      1.0  0.10450  0.93520  0.20200  1.0000
  O   O377      1.0  0.35450  0.93520  0.29800  1.0000
  O   O378      1.0  0.10170  0.52275  0.00917  1.0000
  O   O379      1.0  0.14830  0.77275  0.17583  1.0000
  O   O380      1.0  0.10170  0.72725  0.00917  1.0000
  O   O381      1.0  0.14830  0.97725  0.17583  1.0000
  O   O382      1.0  0.39830  0.97725  0.32417  1.0000
  O   O383      1.0  0.10320  0.75050  0.21880  1.0000
  O   O384      1.0  0.14680  0.74950  0.05213  1.0000
  O   O385      1.0  0.10320  0.99950  0.21880  1.0000
  O   O386      1.0  0.35320  0.99950  0.28120  1.0000
  O   O387      1.0  0.05375  0.56325  0.02943  1.0000
  O   O388      1.0  0.19625  0.81325  0.19610  1.0000
  O   O389      1.0  0.05375  0.68675  0.02943  1.0000
  O   O390      1.0  0.19625  0.93675  0.19610  1.0000
  O   O391      1.0  0.44625  0.93675  0.30390  1.0000
  O   O392      1.0  0.04230  0.51850  0.31477  1.0000
  O   O393      1.0  0.20770  0.76850  0.14810  1.0000
  O   O394      1.0  0.04230  0.73150  0.31477  1.0000
  O   O395      1.0  0.20770  0.98150  0.14810  1.0000
  O   O396      1.0  0.45770  0.98150  0.01857  1.0000
  O   O397      1.0  0.06505  0.53905  0.25567  1.0000
  O   O398      1.0  0.18495  0.78905  0.08900  1.0000
  O   O399      1.0  0.06505  0.71095  0.25567  1.0000
  O   O400      1.0  0.18495  0.96095  0.08900  1.0000
  O   O401      1.0  0.43495  0.96095  0.07767  1.0000
  O   O402      1.0  0.03640  0.97945  0.26107  1.0000
  O   O403      1.0  0.21360  0.72945  0.09440  1.0000
  O   O404      1.0  0.03640  0.77055  0.26107  1.0000
  O   O405      1.0  0.28640  0.77055  0.23893  1.0000
  O   O406      1.0  0.28640  0.97945  0.23893  1.0000
  O   O407      1.0  0.11005  0.56565  0.21520  1.0000
  O   O408      1.0  0.13995  0.81565  0.04853  1.0000
  O   O409      1.0  0.11005  0.68435  0.21520  1.0000
  O   O410      1.0  0.13995  0.93435  0.04853  1.0000
  O   O411      1.0  0.38995  0.93435  0.11813  1.0000
  O   O412      1.0  0.24555  0.92740  0.23897  1.0000
  O   O413      1.0  0.00445  0.67740  0.07230  1.0000
  O   O414      1.0  0.24555  0.82260  0.23897  1.0000
  O   O415      1.0  0.00445  0.57260  0.07230  1.0000
  O   O416      1.0  0.49555  0.92740  0.26103  1.0000
  O   O417      1.0  0.18405  0.91555  0.25810  1.0000
  O   O418      1.0  0.06595  0.66555  0.09143  1.0000
  O   O419      1.0  0.18405  0.83445  0.25810  1.0000
  O   O420      1.0  0.06595  0.58445  0.09143  1.0000
  O   O421      1.0  0.43405  0.91555  0.24190  1.0000
  O   O422      1.0  0.21315  0.87500  0.21437  1.0000
  O   O423      1.0  0.03685  0.62500  0.04770  1.0000
  O   O424      1.0  0.46315  0.87500  0.28563  1.0000
  O   O425      1.0  0.16085  0.93055  0.31870  1.0000
  O   O426      1.0  0.08915  0.68055  0.15203  1.0000
  O   O427      1.0  0.16085  0.81945  0.31870  1.0000
  O   O428      1.0  0.08915  0.56945  0.15203  1.0000
  O   O429      1.0  0.41085  0.93055  0.18130  1.0000
  O   O430      1.0  0.12050  0.92910  0.26633  1.0000
  O   O431      1.0  0.12950  0.67910  0.09967  1.0000
  O   O432      1.0  0.12050  0.82090  0.26633  1.0000
  O   O433      1.0  0.12950  0.57090  0.09967  1.0000
  O   O434      1.0  0.37050  0.92910  0.23367  1.0000
  O   O435      1.0  0.14715  0.87500  0.01930  1.0000
  O   O436      1.0  0.10285  0.62500  0.18597  1.0000
  O   O437      1.0  0.39715  0.87500  0.14737  1.0000
  O   O438      1.0  0.09880  0.91565  0.00010  1.0000
  O   O439      1.0  0.15120  0.66565  0.16677  1.0000
  O   O440      1.0  0.09880  0.83435  0.00010  1.0000
  O   O441      1.0  0.15120  0.58435  0.16677  1.0000
  O   O442      1.0  0.34880  0.83435  0.16657  1.0000
  O   O443      1.0  0.34880  0.91565  0.16657  1.0000
  O   O444      1.0  0.04740  0.87500  0.00683  1.0000
  O   O445      1.0  0.29740  0.87500  0.15983  1.0000
  O   O446      1.0  0.04045  0.93350  0.30917  1.0000
  O   O447      1.0  0.04045  0.81650  0.30917  1.0000
  O   O448      1.0  0.29045  0.81650  0.19083  1.0000
  O   O449      1.0  0.29045  0.93350  0.19083  1.0000
  O   O450      1.0  0.05885  0.91850  0.24687  1.0000
  O   O451      1.0  0.19115  0.66850  0.08020  1.0000
  O   O452      1.0  0.05885  0.83150  0.24687  1.0000
  O   O453      1.0  0.30885  0.83150  0.25313  1.0000
  O   O454      1.0  0.30885  0.91850  0.25313  1.0000
  O   O455      1.0  0.10580  0.87500  0.23043  1.0000
  O   O456      1.0  0.14420  0.62500  0.06377  1.0000
  O   O457      1.0  0.35580  0.87500  0.26957  1.0000
  Si  Si159     1.0  0.03930  0.78555  0.06327  1.0000
  Si  Si160     1.0  0.03930  0.96445  0.06327  1.0000
  Si  Si161     1.0  0.28930  0.96445  0.10340  1.0000
  Si  Si162     1.0  0.08705  0.76680  0.11667  1.0000
  Si  Si163     1.0  0.16295  0.73320  0.28333  1.0000
  Si  Si164     1.0  0.08705  0.98320  0.11667  1.0000
  Si  Si165     1.0  0.33705  0.98320  0.05000  1.0000
  Si  Si166     1.0  0.11040  0.77680  0.18850  1.0000
  Si  Si167     1.0  0.13960  0.72320  0.02183  1.0000
  Si  Si168     1.0  0.11040  0.97320  0.18850  1.0000
  Si  Si169     1.0  0.36040  0.97320  0.31150  1.0000
  Si  Si170     1.0  0.06230  0.52570  0.01603  1.0000
  Si  Si171     1.0  0.18770  0.77570  0.18270  1.0000
  Al  Al2       1.0  0.06230  0.72430  0.01603  1.0000
  Si  Si172     1.0  0.18770  0.97430  0.18270  1.0000
  Si  Si173     1.0  0.43770  0.97430  0.31730  1.0000
  Si  Si174     1.0  0.03605  0.51800  0.27443  1.0000
  Si  Si175     1.0  0.21395  0.76800  0.10777  1.0000
  Si  Si176     1.0  0.03605  0.73200  0.27443  1.0000
  Si  Si177     1.0  0.21395  0.98200  0.10777  1.0000
  Si  Si178     1.0  0.46395  0.98200  0.05890  1.0000
  Si  Si179     1.0  0.10170  0.53435  0.23990  1.0000
  Si  Si180     1.0  0.14830  0.78435  0.07323  1.0000
  Si  Si181     1.0  0.10170  0.71565  0.23990  1.0000
  Si  Si182     1.0  0.14830  0.96565  0.07323  1.0000
  Si  Si183     1.0  0.39830  0.96565  0.09343  1.0000
  Si  Si184     1.0  0.20975  0.91370  0.22683  1.0000
  Si  Si185     1.0  0.04025  0.66370  0.06017  1.0000
  Si  Si186     1.0  0.20975  0.83630  0.22683  1.0000
  Si  Si187     1.0  0.04025  0.58630  0.06017  1.0000
  Si  Si188     1.0  0.45975  0.91370  0.27317  1.0000
  Si  Si189     1.0  0.15760  0.93825  0.27870  1.0000
  Si  Si190     1.0  0.09240  0.68825  0.11203  1.0000
  Si  Si191     1.0  0.15760  0.81175  0.27870  1.0000
  Si  Si192     1.0  0.09240  0.56175  0.11203  1.0000
  Si  Si193     1.0  0.40760  0.93825  0.22130  1.0000
  Si  Si194     1.0  0.13665  0.91390  0.01340  1.0000
  Al  Al3       1.0  0.11335  0.66390  0.18007  1.0000
  Si  Si195     1.0  0.13665  0.83610  0.01340  1.0000
  Si  Si196     1.0  0.11335  0.58610  0.18007  1.0000
  Si  Si197     1.0  0.38665  0.91390  0.15327  1.0000
  Si  Si198     1.0  0.05925  0.91395  0.00610  1.0000
  Si  Si199     1.0  0.05925  0.83605  0.00610  1.0000
  Si  Si200     1.0  0.30925  0.83605  0.16057  1.0000
  Si  Si201     1.0  0.30925  0.91395  0.16057  1.0000
  Si  Si202     1.0  0.03285  0.93970  0.26957  1.0000
  Si  Si203     1.0  0.03285  0.81030  0.26957  1.0000
  Si  Si204     1.0  0.28285  0.81030  0.23043  1.0000
  Si  Si205     1.0  0.28285  0.93970  0.23043  1.0000
  Si  Si206     1.0  0.09735  0.91440  0.23640  1.0000
  Si  Si207     1.0  0.15265  0.66440  0.06973  1.0000
  Si  Si208     1.0  0.09735  0.83560  0.23640  1.0000
  Si  Si209     1.0  0.34735  0.91440  0.26360  1.0000
  O   O458      1.0  0.49940  0.96505  0.40060  1.0000
  O   O459      1.0  0.24940  0.96505  0.43273  1.0000
  O   O460      1.0  0.00060  0.71505  0.59940  1.0000
  O   O461      1.0  0.24940  0.78495  0.43273  1.0000
  O   O462      1.0  0.00060  0.53495  0.59940  1.0000
  O   O463      1.0  0.05625  0.78715  0.43360  1.0000
  O   O464      1.0  0.19375  0.71285  0.60027  1.0000
  O   O465      1.0  0.05625  0.96285  0.43360  1.0000
  O   O466      1.0  0.30625  0.96285  0.39973  1.0000
  O   O467      1.0  0.05025  0.81830  0.37503  1.0000
  O   O468      1.0  0.05025  0.93170  0.37503  1.0000
  O   O469      1.0  0.30025  0.93170  0.45830  1.0000
  O   O470      1.0  0.30025  0.81830  0.45830  1.0000
  O   O471      1.0  0.05140  0.75170  0.37753  1.0000
  O   O472      1.0  0.19860  0.74830  0.54420  1.0000
  O   O473      1.0  0.05140  0.99830  0.37753  1.0000
  O   O474      1.0  0.30140  0.99830  0.45580  1.0000
  O   O475      1.0  0.08550  0.76925  0.49073  1.0000
  O   O476      1.0  0.16450  0.73075  0.65740  1.0000
  O   O477      1.0  0.08550  0.98075  0.49073  1.0000
  O   O478      1.0  0.33550  0.98075  0.34260  1.0000
  O   O479      1.0  0.16485  0.97775  0.60517  1.0000
  O   O480      1.0  0.08515  0.72775  0.43850  1.0000
  O   O481      1.0  0.16485  0.77225  0.60517  1.0000
  O   O482      1.0  0.08515  0.52225  0.43850  1.0000
  O   O483      1.0  0.41485  0.97775  0.56150  1.0000
  O   O484      1.0  0.12855  0.53315  0.60353  1.0000
  O   O485      1.0  0.12145  0.78315  0.43687  1.0000
  O   O486      1.0  0.12855  0.71685  0.60353  1.0000
  O   O487      1.0  0.12145  0.96685  0.43687  1.0000
  O   O488      1.0  0.37145  0.96685  0.39647  1.0000
  O   O489      1.0  0.10450  0.81480  0.53533  1.0000
  O   O490      1.0  0.14550  0.68520  0.36867  1.0000
  O   O491      1.0  0.10450  0.93520  0.53533  1.0000
  O   O492      1.0  0.35450  0.93520  0.63133  1.0000
  O   O493      1.0  0.10170  0.52275  0.34250  1.0000
  O   O494      1.0  0.14830  0.77275  0.50917  1.0000
  O   O495      1.0  0.10170  0.72725  0.34250  1.0000
  O   O496      1.0  0.14830  0.97725  0.50917  1.0000
  O   O497      1.0  0.39830  0.97725  0.65750  1.0000
  O   O498      1.0  0.10320  0.75050  0.55213  1.0000
  O   O499      1.0  0.14680  0.74950  0.38547  1.0000
  O   O500      1.0  0.10320  0.99950  0.55213  1.0000
  O   O501      1.0  0.35320  0.99950  0.61453  1.0000
  O   O502      1.0  0.05375  0.56325  0.36277  1.0000
  O   O503      1.0  0.19625  0.81325  0.52943  1.0000
  O   O504      1.0  0.05375  0.68675  0.36277  1.0000
  O   O505      1.0  0.19625  0.93675  0.52943  1.0000
  O   O506      1.0  0.44625  0.93675  0.63723  1.0000
  O   O507      1.0  0.04230  0.51850  0.64810  1.0000
  O   O508      1.0  0.20770  0.76850  0.48143  1.0000
  O   O509      1.0  0.04230  0.73150  0.64810  1.0000
  O   O510      1.0  0.20770  0.98150  0.48143  1.0000
  O   O511      1.0  0.45770  0.98150  0.35190  1.0000
  O   O512      1.0  0.06505  0.53905  0.58900  1.0000
  O   O513      1.0  0.18495  0.78905  0.42233  1.0000
  O   O514      1.0  0.06505  0.71095  0.58900  1.0000
  O   O515      1.0  0.18495  0.96095  0.42233  1.0000
  O   O516      1.0  0.43495  0.96095  0.41100  1.0000
  O   O517      1.0  0.03640  0.97945  0.59440  1.0000
  O   O518      1.0  0.21360  0.72945  0.42773  1.0000
  O   O519      1.0  0.03640  0.77055  0.59440  1.0000
  O   O520      1.0  0.28640  0.77055  0.57227  1.0000
  O   O521      1.0  0.28640  0.97945  0.57227  1.0000
  O   O522      1.0  0.11005  0.56565  0.54853  1.0000
  O   O523      1.0  0.13995  0.81565  0.38187  1.0000
  O   O524      1.0  0.11005  0.68435  0.54853  1.0000
  O   O525      1.0  0.13995  0.93435  0.38187  1.0000
  O   O526      1.0  0.38995  0.93435  0.45147  1.0000
  O   O527      1.0  0.24555  0.92740  0.57230  1.0000
  O   O528      1.0  0.00445  0.67740  0.40563  1.0000
  O   O529      1.0  0.24555  0.82260  0.57230  1.0000
  O   O530      1.0  0.00445  0.57260  0.40563  1.0000
  O   O531      1.0  0.49555  0.92740  0.59437  1.0000
  O   O532      1.0  0.18405  0.91555  0.59143  1.0000
  O   O533      1.0  0.06595  0.66555  0.42477  1.0000
  O   O534      1.0  0.18405  0.83445  0.59143  1.0000
  O   O535      1.0  0.06595  0.58445  0.42477  1.0000
  O   O536      1.0  0.43405  0.91555  0.57523  1.0000
  O   O537      1.0  0.21315  0.87500  0.54770  1.0000
  O   O538      1.0  0.03685  0.62500  0.38103  1.0000
  O   O539      1.0  0.46315  0.87500  0.61897  1.0000
  O   O540      1.0  0.16085  0.93055  0.65203  1.0000
  O   O541      1.0  0.08915  0.68055  0.48537  1.0000
  O   O542      1.0  0.16085  0.81945  0.65203  1.0000
  O   O543      1.0  0.08915  0.56945  0.48537  1.0000
  O   O544      1.0  0.41085  0.93055  0.51463  1.0000
  O   O545      1.0  0.12050  0.92910  0.59967  1.0000
  O   O546      1.0  0.12950  0.67910  0.43300  1.0000
  O   O547      1.0  0.12050  0.82090  0.59967  1.0000
  O   O548      1.0  0.12950  0.57090  0.43300  1.0000
  O   O549      1.0  0.37050  0.92910  0.56700  1.0000
  O   O550      1.0  0.14715  0.87500  0.35263  1.0000
  O   O551      1.0  0.10285  0.62500  0.51930  1.0000
  O   O552      1.0  0.39715  0.87500  0.48070  1.0000
  O   O553      1.0  0.09880  0.91565  0.33343  1.0000
  O   O554      1.0  0.15120  0.66565  0.50010  1.0000
  O   O555      1.0  0.09880  0.83435  0.33343  1.0000
  O   O556      1.0  0.15120  0.58435  0.50010  1.0000
  O   O557      1.0  0.34880  0.83435  0.49990  1.0000
  O   O558      1.0  0.34880  0.91565  0.49990  1.0000
  O   O559      1.0  0.04740  0.87500  0.34017  1.0000
  O   O560      1.0  0.29740  0.87500  0.49317  1.0000
  O   O561      1.0  0.04045  0.93350  0.64250  1.0000
  O   O562      1.0  0.04045  0.81650  0.64250  1.0000
  O   O563      1.0  0.29045  0.81650  0.52417  1.0000
  O   O564      1.0  0.29045  0.93350  0.52417  1.0000
  O   O565      1.0  0.05885  0.91850  0.58020  1.0000
  O   O566      1.0  0.19115  0.66850  0.41353  1.0000
  O   O567      1.0  0.05885  0.83150  0.58020  1.0000
  O   O568      1.0  0.30885  0.83150  0.58647  1.0000
  O   O569      1.0  0.30885  0.91850  0.58647  1.0000
  O   O570      1.0  0.10580  0.87500  0.56377  1.0000
  O   O571      1.0  0.14420  0.62500  0.39710  1.0000
  O   O572      1.0  0.35580  0.87500  0.60290  1.0000
  Si  Si210     1.0  0.03930  0.78555  0.39660  1.0000
  Si  Si211     1.0  0.03930  0.96445  0.39660  1.0000
  Si  Si212     1.0  0.28930  0.96445  0.43673  1.0000
  Si  Si213     1.0  0.08705  0.76680  0.45000  1.0000
  Si  Si214     1.0  0.16295  0.73320  0.61667  1.0000
  Si  Si215     1.0  0.08705  0.98320  0.45000  1.0000
  Si  Si216     1.0  0.33705  0.98320  0.38333  1.0000
  Si  Si217     1.0  0.11040  0.77680  0.52183  1.0000
  Si  Si218     1.0  0.13960  0.72320  0.35517  1.0000
  Si  Si219     1.0  0.11040  0.97320  0.52183  1.0000
  Si  Si220     1.0  0.36040  0.97320  0.64483  1.0000
  Si  Si221     1.0  0.06230  0.52570  0.34937  1.0000
  Si  Si222     1.0  0.18770  0.77570  0.51603  1.0000
  Si  Si223     1.0  0.06230  0.72430  0.34937  1.0000
  Si  Si224     1.0  0.18770  0.97430  0.51603  1.0000
  Si  Si225     1.0  0.43770  0.97430  0.65063  1.0000
  Si  Si226     1.0  0.03605  0.51800  0.60777  1.0000
  Si  Si227     1.0  0.21395  0.76800  0.44110  1.0000
  Si  Si228     1.0  0.03605  0.73200  0.60777  1.0000
  Si  Si229     1.0  0.21395  0.98200  0.44110  1.0000
  Si  Si230     1.0  0.46395  0.98200  0.39223  1.0000
  Si  Si231     1.0  0.10170  0.53435  0.57323  1.0000
  Si  Si232     1.0  0.14830  0.78435  0.40657  1.0000
  Si  Si233     1.0  0.10170  0.71565  0.57323  1.0000
  Si  Si234     1.0  0.14830  0.96565  0.40657  1.0000
  Si  Si235     1.0  0.39830  0.96565  0.42677  1.0000
  Si  Si236     1.0  0.20975  0.91370  0.56017  1.0000
  Si  Si237     1.0  0.04025  0.66370  0.39350  1.0000
  Si  Si238     1.0  0.20975  0.83630  0.56017  1.0000
  Si  Si239     1.0  0.04025  0.58630  0.39350  1.0000
  Si  Si240     1.0  0.45975  0.91370  0.60650  1.0000
  Si  Si241     1.0  0.15760  0.93825  0.61203  1.0000
  Si  Si242     1.0  0.09240  0.68825  0.44537  1.0000
  Si  Si243     1.0  0.15760  0.81175  0.61203  1.0000
  Si  Si244     1.0  0.09240  0.56175  0.44537  1.0000
  Si  Si245     1.0  0.40760  0.93825  0.55463  1.0000
  Si  Si246     1.0  0.13665  0.91390  0.34673  1.0000
  Si  Si247     1.0  0.11335  0.66390  0.51340  1.0000
  Si  Si248     1.0  0.13665  0.83610  0.34673  1.0000
  Si  Si249     1.0  0.11335  0.58610  0.51340  1.0000
  Si  Si250     1.0  0.38665  0.91390  0.48660  1.0000
  Si  Si251     1.0  0.05925  0.91395  0.33943  1.0000
  Si  Si252     1.0  0.05925  0.83605  0.33943  1.0000
  Si  Si253     1.0  0.30925  0.83605  0.49390  1.0000
  Si  Si254     1.0  0.30925  0.91395  0.49390  1.0000
  Si  Si255     1.0  0.03285  0.93970  0.60290  1.0000
  Si  Si256     1.0  0.03285  0.81030  0.60290  1.0000
  Si  Si257     1.0  0.28285  0.81030  0.56377  1.0000
  Si  Si258     1.0  0.28285  0.93970  0.56377  1.0000
  Si  Si259     1.0  0.09735  0.91440  0.56973  1.0000
  Si  Si260     1.0  0.15265  0.66440  0.40307  1.0000
  Si  Si261     1.0  0.09735  0.83560  0.56973  1.0000
  Si  Si262     1.0  0.34735  0.91440  0.59693  1.0000
  O   O573      1.0  0.49940  0.96505  0.73393  1.0000
  O   O574      1.0  0.24940  0.96505  0.76607  1.0000
  O   O575      1.0  0.00060  0.71505  0.93273  1.0000
  O   O576      1.0  0.24940  0.78495  0.76607  1.0000
  O   O577      1.0  0.00060  0.53495  0.93273  1.0000
  O   O578      1.0  0.05625  0.78715  0.76693  1.0000
  O   O579      1.0  0.19375  0.71285  0.93360  1.0000
  O   O580      1.0  0.05625  0.96285  0.76693  1.0000
  O   O581      1.0  0.30625  0.96285  0.73307  1.0000
  O   O582      1.0  0.05025  0.81830  0.70837  1.0000
  O   O583      1.0  0.05025  0.93170  0.70837  1.0000
  O   O584      1.0  0.30025  0.93170  0.79163  1.0000
  O   O585      1.0  0.30025  0.81830  0.79163  1.0000
  O   O586      1.0  0.05140  0.75170  0.71087  1.0000
  O   O587      1.0  0.19860  0.74830  0.87753  1.0000
  O   O588      1.0  0.05140  0.99830  0.71087  1.0000
  O   O589      1.0  0.30140  0.99830  0.78913  1.0000
  O   O590      1.0  0.08550  0.76925  0.82407  1.0000
  O   O591      1.0  0.16450  0.73075  0.99073  1.0000
  O   O592      1.0  0.08550  0.98075  0.82407  1.0000
  O   O593      1.0  0.33550  0.98075  0.67593  1.0000
  O   O594      1.0  0.16485  0.97775  0.93850  1.0000
  O   O595      1.0  0.08515  0.72775  0.77183  1.0000
  O   O596      1.0  0.16485  0.77225  0.93850  1.0000
  O   O597      1.0  0.08515  0.52225  0.77183  1.0000
  O   O598      1.0  0.41485  0.97775  0.89483  1.0000
  O   O599      1.0  0.12855  0.53315  0.93687  1.0000
  O   O600      1.0  0.12145  0.78315  0.77020  1.0000
  O   O601      1.0  0.12855  0.71685  0.93687  1.0000
  O   O602      1.0  0.12145  0.96685  0.77020  1.0000
  O   O603      1.0  0.37145  0.96685  0.72980  1.0000
  O   O604      1.0  0.10450  0.81480  0.86867  1.0000
  O   O605      1.0  0.14550  0.68520  0.70200  1.0000
  O   O606      1.0  0.10450  0.93520  0.86867  1.0000
  O   O607      1.0  0.35450  0.93520  0.96467  1.0000
  O   O608      1.0  0.10170  0.52275  0.67583  1.0000
  O   O609      1.0  0.14830  0.77275  0.84250  1.0000
  O   O610      1.0  0.10170  0.72725  0.67583  1.0000
  O   O611      1.0  0.14830  0.97725  0.84250  1.0000
  O   O612      1.0  0.39830  0.97725  0.99083  1.0000
  O   O613      1.0  0.10320  0.75050  0.88547  1.0000
  O   O614      1.0  0.14680  0.74950  0.71880  1.0000
  O   O615      1.0  0.10320  0.99950  0.88547  1.0000
  O   O616      1.0  0.35320  0.99950  0.94787  1.0000
  O   O617      1.0  0.05375  0.56325  0.69610  1.0000
  O   O618      1.0  0.19625  0.81325  0.86277  1.0000
  O   O619      1.0  0.05375  0.68675  0.69610  1.0000
  O   O620      1.0  0.19625  0.93675  0.86277  1.0000
  O   O621      1.0  0.44625  0.93675  0.97057  1.0000
  O   O622      1.0  0.04230  0.51850  0.98143  1.0000
  O   O623      1.0  0.20770  0.76850  0.81477  1.0000
  O   O624      1.0  0.04230  0.73150  0.98143  1.0000
  O   O625      1.0  0.20770  0.98150  0.81477  1.0000
  O   O626      1.0  0.45770  0.98150  0.68523  1.0000
  O   O627      1.0  0.06505  0.53905  0.92233  1.0000
  O   O628      1.0  0.18495  0.78905  0.75567  1.0000
  O   O629      1.0  0.06505  0.71095  0.92233  1.0000
  O   O630      1.0  0.18495  0.96095  0.75567  1.0000
  O   O631      1.0  0.43495  0.96095  0.74433  1.0000
  O   O632      1.0  0.03640  0.97945  0.92773  1.0000
  O   O633      1.0  0.21360  0.72945  0.76107  1.0000
  O   O634      1.0  0.03640  0.77055  0.92773  1.0000
  O   O635      1.0  0.28640  0.77055  0.90560  1.0000
  O   O636      1.0  0.28640  0.97945  0.90560  1.0000
  O   O637      1.0  0.11005  0.56565  0.88187  1.0000
  O   O638      1.0  0.13995  0.81565  0.71520  1.0000
  O   O639      1.0  0.11005  0.68435  0.88187  1.0000
  O   O640      1.0  0.13995  0.93435  0.71520  1.0000
  O   O641      1.0  0.38995  0.93435  0.78480  1.0000
  O   O642      1.0  0.24555  0.92740  0.90563  1.0000
  O   O643      1.0  0.00445  0.67740  0.73897  1.0000
  O   O644      1.0  0.24555  0.82260  0.90563  1.0000
  O   O645      1.0  0.00445  0.57260  0.73897  1.0000
  O   O646      1.0  0.49555  0.92740  0.92770  1.0000
  O   O647      1.0  0.18405  0.91555  0.92477  1.0000
  O   O648      1.0  0.06595  0.66555  0.75810  1.0000
  O   O649      1.0  0.18405  0.83445  0.92477  1.0000
  O   O650      1.0  0.06595  0.58445  0.75810  1.0000
  O   O651      1.0  0.43405  0.91555  0.90857  1.0000
  O   O652      1.0  0.21315  0.87500  0.88103  1.0000
  O   O653      1.0  0.03685  0.62500  0.71437  1.0000
  O   O654      1.0  0.46315  0.87500  0.95230  1.0000
  O   O655      1.0  0.16085  0.93055  0.98537  1.0000
  O   O656      1.0  0.08915  0.68055  0.81870  1.0000
  O   O657      1.0  0.16085  0.81945  0.98537  1.0000
  O   O658      1.0  0.08915  0.56945  0.81870  1.0000
  O   O659      1.0  0.41085  0.93055  0.84797  1.0000
  O   O660      1.0  0.12050  0.92910  0.93300  1.0000
  O   O661      1.0  0.12950  0.67910  0.76633  1.0000
  O   O662      1.0  0.12050  0.82090  0.93300  1.0000
  O   O663      1.0  0.12950  0.57090  0.76633  1.0000
  O   O664      1.0  0.37050  0.92910  0.90033  1.0000
  O   O665      1.0  0.14715  0.87500  0.68597  1.0000
  O   O666      1.0  0.10285  0.62500  0.85263  1.0000
  O   O667      1.0  0.39715  0.87500  0.81403  1.0000
  O   O668      1.0  0.09880  0.91565  0.66677  1.0000
  O   O669      1.0  0.15120  0.66565  0.83343  1.0000
  O   O670      1.0  0.09880  0.83435  0.66677  1.0000
  O   O671      1.0  0.15120  0.58435  0.83343  1.0000
  O   O672      1.0  0.34880  0.83435  0.83323  1.0000
  O   O673      1.0  0.34880  0.91565  0.83323  1.0000
  O   O674      1.0  0.04740  0.87500  0.67350  1.0000
  O   O675      1.0  0.29740  0.87500  0.82650  1.0000
  O   O676      1.0  0.04045  0.93350  0.97583  1.0000
  O   O677      1.0  0.04045  0.81650  0.97583  1.0000
  O   O678      1.0  0.29045  0.81650  0.85750  1.0000
  O   O679      1.0  0.29045  0.93350  0.85750  1.0000
  O   O680      1.0  0.05885  0.91850  0.91353  1.0000
  O   O681      1.0  0.19115  0.66850  0.74687  1.0000
  O   O682      1.0  0.05885  0.83150  0.91353  1.0000
  O   O683      1.0  0.30885  0.83150  0.91980  1.0000
  O   O684      1.0  0.30885  0.91850  0.91980  1.0000
  O   O685      1.0  0.10580  0.87500  0.89710  1.0000
  O   O686      1.0  0.14420  0.62500  0.73043  1.0000
  O   O687      1.0  0.35580  0.87500  0.93623  1.0000
  Si  Si263     1.0  0.03930  0.78555  0.72993  1.0000
  Si  Si264     1.0  0.03930  0.96445  0.72993  1.0000
  Si  Si265     1.0  0.28930  0.96445  0.77007  1.0000
  Si  Si266     1.0  0.08705  0.76680  0.78333  1.0000
  Si  Si267     1.0  0.16295  0.73320  0.95000  1.0000
  Si  Si268     1.0  0.08705  0.98320  0.78333  1.0000
  Si  Si269     1.0  0.33705  0.98320  0.71667  1.0000
  Si  Si270     1.0  0.11040  0.77680  0.85517  1.0000
  Si  Si271     1.0  0.13960  0.72320  0.68850  1.0000
  Si  Si272     1.0  0.11040  0.97320  0.85517  1.0000
  Si  Si273     1.0  0.36040  0.97320  0.97817  1.0000
  Si  Si274     1.0  0.06230  0.52570  0.68270  1.0000
  Si  Si275     1.0  0.18770  0.77570  0.84937  1.0000
  Si  Si276     1.0  0.06230  0.72430  0.68270  1.0000
  Si  Si277     1.0  0.18770  0.97430  0.84937  1.0000
  Si  Si278     1.0  0.43770  0.97430  0.98397  1.0000
  Si  Si279     1.0  0.03605  0.51800  0.94110  1.0000
  Si  Si280     1.0  0.21395  0.76800  0.77443  1.0000
  Si  Si281     1.0  0.03605  0.73200  0.94110  1.0000
  Si  Si282     1.0  0.21395  0.98200  0.77443  1.0000
  Si  Si283     1.0  0.46395  0.98200  0.72557  1.0000
  Si  Si284     1.0  0.10170  0.53435  0.90657  1.0000
  Si  Si285     1.0  0.14830  0.78435  0.73990  1.0000
  Si  Si286     1.0  0.10170  0.71565  0.90657  1.0000
  Si  Si287     1.0  0.14830  0.96565  0.73990  1.0000
  Si  Si288     1.0  0.39830  0.96565  0.76010  1.0000
  Si  Si289     1.0  0.20975  0.91370  0.89350  1.0000
  Si  Si290     1.0  0.04025  0.66370  0.72683  1.0000
  Si  Si291     1.0  0.20975  0.83630  0.89350  1.0000
  Si  Si292     1.0  0.04025  0.58630  0.72683  1.0000
  Si  Si293     1.0  0.45975  0.91370  0.93983  1.0000
  Si  Si294     1.0  0.15760  0.93825  0.94537  1.0000
  Si  Si295     1.0  0.09240  0.68825  0.77870  1.0000
  Si  Si296     1.0  0.15760  0.81175  0.94537  1.0000
  Si  Si297     1.0  0.09240  0.56175  0.77870  1.0000
  Si  Si298     1.0  0.40760  0.93825  0.88797  1.0000
  Si  Si299     1.0  0.13665  0.91390  0.68007  1.0000
  Si  Si300     1.0  0.11335  0.66390  0.84673  1.0000
  Si  Si301     1.0  0.13665  0.83610  0.68007  1.0000
  Si  Si302     1.0  0.11335  0.58610  0.84673  1.0000
  Si  Si303     1.0  0.38665  0.91390  0.81993  1.0000
  Si  Si304     1.0  0.05925  0.91395  0.67277  1.0000
  Si  Si305     1.0  0.05925  0.83605  0.67277  1.0000
  Si  Si306     1.0  0.30925  0.83605  0.82723  1.0000
  Si  Si307     1.0  0.30925  0.91395  0.82723  1.0000
  Si  Si308     1.0  0.03285  0.93970  0.93623  1.0000
  Si  Si309     1.0  0.03285  0.81030  0.93623  1.0000
  Si  Si310     1.0  0.28285  0.81030  0.89710  1.0000
  Si  Si311     1.0  0.28285  0.93970  0.89710  1.0000
  Si  Si312     1.0  0.09735  0.91440  0.90307  1.0000
  Si  Si313     1.0  0.15265  0.66440  0.73640  1.0000
  Si  Si314     1.0  0.09735  0.83560  0.90307  1.0000
  Si  Si315     1.0  0.34735  0.91440  0.93027  1.0000
  O   O688      1.0  0.75060  0.03495  0.23393  1.0000
  O   O689      1.0  0.99940  0.28495  0.06727  1.0000
  O   O690      1.0  0.75060  0.21505  0.23393  1.0000
  O   O691      1.0  0.99940  0.46505  0.06727  1.0000
  O   O692      1.0  0.50060  0.03495  0.26607  1.0000
  O   O693      1.0  0.69375  0.03715  0.26693  1.0000
  O   O694      1.0  0.94375  0.21285  0.23307  1.0000
  O   O695      1.0  0.80625  0.28715  0.06640  1.0000
  O   O696      1.0  0.94375  0.03715  0.23307  1.0000
  O   O697      1.0  0.69975  0.06830  0.20837  1.0000
  O   O698      1.0  0.69975  0.18170  0.20837  1.0000
  O   O699      1.0  0.94975  0.18170  0.29163  1.0000
  O   O700      1.0  0.94975  0.06830  0.29163  1.0000
  O   O701      1.0  0.69860  0.00170  0.21087  1.0000
  O   O702      1.0  0.94860  0.24830  0.28913  1.0000
  O   O703      1.0  0.80140  0.25170  0.12247  1.0000
  O   O704      1.0  0.94860  0.00170  0.28913  1.0000
  O   O705      1.0  0.66450  0.01925  0.32407  1.0000
  O   O706      1.0  0.91450  0.23075  0.17593  1.0000
  O   O707      1.0  0.83550  0.26925  0.00927  1.0000
  O   O708      1.0  0.91450  0.01925  0.17593  1.0000
  O   O709      1.0  0.58515  0.02225  0.10517  1.0000
  O   O710      1.0  0.83515  0.02225  0.06150  1.0000
  O   O711      1.0  0.91485  0.27225  0.22817  1.0000
  O   O712      1.0  0.83515  0.22775  0.06150  1.0000
  O   O713      1.0  0.91485  0.47775  0.22817  1.0000
  O   O714      1.0  0.62855  0.03315  0.27020  1.0000
  O   O715      1.0  0.87145  0.46685  0.06313  1.0000
  O   O716      1.0  0.87855  0.21685  0.22980  1.0000
  O   O717      1.0  0.87145  0.28315  0.06313  1.0000
  O   O718      1.0  0.87855  0.03315  0.22980  1.0000
  O   O719      1.0  0.64550  0.06480  0.03533  1.0000
  O   O720      1.0  0.89550  0.18520  0.13133  1.0000
  O   O721      1.0  0.85450  0.31480  0.29800  1.0000
  O   O722      1.0  0.89550  0.06480  0.13133  1.0000
  O   O723      1.0  0.60170  0.02275  0.00917  1.0000
  O   O724      1.0  0.89830  0.47725  0.32417  1.0000
  O   O725      1.0  0.85170  0.22725  0.15750  1.0000
  O   O726      1.0  0.89830  0.27275  0.32417  1.0000
  O   O727      1.0  0.85170  0.02275  0.15750  1.0000
  O   O728      1.0  0.64680  0.00050  0.05213  1.0000
  O   O729      1.0  0.89680  0.24950  0.11453  1.0000
  O   O730      1.0  0.85320  0.25050  0.28120  1.0000
  O   O731      1.0  0.89680  0.00050  0.11453  1.0000
  O   O732      1.0  0.55375  0.06325  0.02943  1.0000
  O   O733      1.0  0.94625  0.43675  0.30390  1.0000
  O   O734      1.0  0.80375  0.18675  0.13723  1.0000
  O   O735      1.0  0.94625  0.31325  0.30390  1.0000
  O   O736      1.0  0.80375  0.06325  0.13723  1.0000
  O   O737      1.0  0.54230  0.01850  0.31477  1.0000
  O   O738      1.0  0.95770  0.48150  0.01857  1.0000
  O   O739      1.0  0.79230  0.23150  0.18523  1.0000
  O   O740      1.0  0.95770  0.26850  0.01857  1.0000
  O   O741      1.0  0.79230  0.01850  0.18523  1.0000
  O   O742      1.0  0.56505  0.03905  0.25567  1.0000
  O   O743      1.0  0.93495  0.46095  0.07767  1.0000
  O   O744      1.0  0.81505  0.21095  0.24433  1.0000
  O   O745      1.0  0.93495  0.28905  0.07767  1.0000
  O   O746      1.0  0.81505  0.03905  0.24433  1.0000
  O   O747      1.0  0.71360  0.22945  0.09440  1.0000
  O   O748      1.0  0.71360  0.02055  0.09440  1.0000
  O   O749      1.0  0.96360  0.02055  0.07227  1.0000
  O   O750      1.0  0.78640  0.27055  0.23893  1.0000
  O   O751      1.0  0.96360  0.22945  0.07227  1.0000
  O   O752      1.0  0.61005  0.06565  0.21520  1.0000
  O   O753      1.0  0.88995  0.43435  0.11813  1.0000
  O   O754      1.0  0.86005  0.18435  0.28480  1.0000
  O   O755      1.0  0.88995  0.31565  0.11813  1.0000
  O   O756      1.0  0.86005  0.06565  0.28480  1.0000
  O   O757      1.0  0.50445  0.07260  0.07230  1.0000
  O   O758      1.0  0.75445  0.07260  0.09437  1.0000
  O   O759      1.0  0.99555  0.32260  0.26103  1.0000
  O   O760      1.0  0.75445  0.17740  0.09437  1.0000
  O   O761      1.0  0.99555  0.42740  0.26103  1.0000
  O   O762      1.0  0.56595  0.08445  0.09143  1.0000
  O   O763      1.0  0.81595  0.08445  0.07523  1.0000
  O   O764      1.0  0.93405  0.33445  0.24190  1.0000
  O   O765      1.0  0.81595  0.16555  0.07523  1.0000
  O   O766      1.0  0.93405  0.41555  0.24190  1.0000
  O   O767      1.0  0.53685  0.12500  0.04770  1.0000
  O   O768      1.0  0.78685  0.12500  0.11897  1.0000
  O   O769      1.0  0.96315  0.37500  0.28563  1.0000
  O   O770      1.0  0.58915  0.06945  0.15203  1.0000
  O   O771      1.0  0.83915  0.06945  0.01463  1.0000
  O   O772      1.0  0.91085  0.31945  0.18130  1.0000
  O   O773      1.0  0.83915  0.18055  0.01463  1.0000
  O   O774      1.0  0.91085  0.43055  0.18130  1.0000
  O   O775      1.0  0.62950  0.07090  0.09967  1.0000
  O   O776      1.0  0.87950  0.07090  0.06700  1.0000
  O   O777      1.0  0.87050  0.32090  0.23367  1.0000
  O   O778      1.0  0.87950  0.17910  0.06700  1.0000
  O   O779      1.0  0.87050  0.42910  0.23367  1.0000
  O   O780      1.0  0.60285  0.12500  0.18597  1.0000
  O   O781      1.0  0.85285  0.12500  0.31403  1.0000
  O   O782      1.0  0.89715  0.37500  0.14737  1.0000
  O   O783      1.0  0.65120  0.16565  0.16677  1.0000
  O   O784      1.0  0.65120  0.08435  0.16677  1.0000
  O   O785      1.0  0.90120  0.08435  0.33323  1.0000
  O   O786      1.0  0.84880  0.33435  0.16657  1.0000
  O   O787      1.0  0.90120  0.16565  0.33323  1.0000
  O   O788      1.0  0.84880  0.41565  0.16657  1.0000
  O   O789      1.0  0.70260  0.12500  0.17350  1.0000
  O   O790      1.0  0.95260  0.12500  0.32650  1.0000
  O   O791      1.0  0.70955  0.18350  0.14250  1.0000
  O   O792      1.0  0.70955  0.06650  0.14250  1.0000
  O   O793      1.0  0.95955  0.06650  0.02417  1.0000
  O   O794      1.0  0.95955  0.18350  0.02417  1.0000
  O   O795      1.0  0.69115  0.16850  0.08020  1.0000
  O   O796      1.0  0.69115  0.08150  0.08020  1.0000
  O   O797      1.0  0.94115  0.08150  0.08647  1.0000
  O   O798      1.0  0.80885  0.33150  0.25313  1.0000
  O   O799      1.0  0.94115  0.16850  0.08647  1.0000
  O   O800      1.0  0.64420  0.12500  0.06377  1.0000
  O   O801      1.0  0.89420  0.12500  0.10290  1.0000
  O   O802      1.0  0.85580  0.37500  0.26957  1.0000
  Si  Si316     1.0  0.71070  0.03555  0.22993  1.0000
  Si  Si317     1.0  0.96070  0.21445  0.27007  1.0000
  Si  Si318     1.0  0.96070  0.03555  0.27007  1.0000
  Si  Si319     1.0  0.66295  0.01680  0.28333  1.0000
  Si  Si320     1.0  0.91295  0.23320  0.21667  1.0000
  Si  Si321     1.0  0.83705  0.26680  0.05000  1.0000
  Si  Si322     1.0  0.91295  0.01680  0.21667  1.0000
  Si  Si323     1.0  0.63960  0.02680  0.02183  1.0000
  Si  Si324     1.0  0.88960  0.22320  0.14483  1.0000
  Si  Si325     1.0  0.86040  0.27680  0.31150  1.0000
  Si  Si326     1.0  0.88960  0.02680  0.14483  1.0000
  Si  Si327     1.0  0.56230  0.02570  0.01603  1.0000
  Si  Si328     1.0  0.93770  0.47430  0.31730  1.0000
  Si  Si329     1.0  0.81230  0.22430  0.15063  1.0000
  Si  Si330     1.0  0.93770  0.27570  0.31730  1.0000
  Si  Si331     1.0  0.81230  0.02570  0.15063  1.0000
  Si  Si332     1.0  0.53605  0.01800  0.27443  1.0000
  Si  Si333     1.0  0.96395  0.48200  0.05890  1.0000
  Si  Si334     1.0  0.78605  0.23200  0.22557  1.0000
  Si  Si335     1.0  0.96395  0.26800  0.05890  1.0000
  Si  Si336     1.0  0.78605  0.01800  0.22557  1.0000
  Si  Si337     1.0  0.60170  0.03435  0.23990  1.0000
  Si  Si338     1.0  0.89830  0.46565  0.09343  1.0000
  Si  Si339     1.0  0.85170  0.21565  0.26010  1.0000
  Si  Si340     1.0  0.89830  0.28435  0.09343  1.0000
  Si  Si341     1.0  0.85170  0.03435  0.26010  1.0000
  Si  Si342     1.0  0.54025  0.08630  0.06017  1.0000
  Si  Si343     1.0  0.79025  0.08630  0.10650  1.0000
  Si  Si344     1.0  0.95975  0.33630  0.27317  1.0000
  Si  Si345     1.0  0.79025  0.16370  0.10650  1.0000
  Si  Si346     1.0  0.95975  0.41370  0.27317  1.0000
  Si  Si347     1.0  0.59240  0.06175  0.11203  1.0000
  Si  Si348     1.0  0.84240  0.06175  0.05463  1.0000
  Si  Si349     1.0  0.90760  0.31175  0.22130  1.0000
  Si  Si350     1.0  0.84240  0.18825  0.05463  1.0000
  Si  Si351     1.0  0.90760  0.43825  0.22130  1.0000
  Si  Si352     1.0  0.61335  0.08610  0.18007  1.0000
  Si  Si353     1.0  0.86335  0.08610  0.31993  1.0000
  Si  Si354     1.0  0.88665  0.33610  0.15327  1.0000
  Si  Si355     1.0  0.86335  0.16390  0.31993  1.0000
  Si  Si356     1.0  0.88665  0.41390  0.15327  1.0000
  Si  Si357     1.0  0.69075  0.16395  0.17277  1.0000
  Si  Si358     1.0  0.69075  0.08605  0.17277  1.0000
  Si  Si359     1.0  0.94075  0.08605  0.32723  1.0000
  Si  Si360     1.0  0.94075  0.16395  0.32723  1.0000
  Si  Si361     1.0  0.71715  0.18970  0.10290  1.0000
  Si  Si362     1.0  0.71715  0.06030  0.10290  1.0000
  Si  Si363     1.0  0.96715  0.06030  0.06377  1.0000
  Si  Si364     1.0  0.96715  0.18970  0.06377  1.0000
  Si  Si365     1.0  0.65265  0.08560  0.06973  1.0000
  Si  Si366     1.0  0.90265  0.08560  0.09693  1.0000
  Si  Si367     1.0  0.84735  0.33560  0.26360  1.0000
  Si  Si368     1.0  0.90265  0.16440  0.09693  1.0000
  O   O803      1.0  0.75060  0.03495  0.56727  1.0000
  O   O804      1.0  0.99940  0.28495  0.40060  1.0000
  O   O805      1.0  0.75060  0.21505  0.56727  1.0000
  O   O806      1.0  0.99940  0.46505  0.40060  1.0000
  O   O807      1.0  0.50060  0.03495  0.59940  1.0000
  O   O808      1.0  0.69375  0.03715  0.60027  1.0000
  O   O809      1.0  0.94375  0.21285  0.56640  1.0000
  O   O810      1.0  0.80625  0.28715  0.39973  1.0000
  O   O811      1.0  0.94375  0.03715  0.56640  1.0000
  O   O812      1.0  0.69975  0.06830  0.54170  1.0000
  O   O813      1.0  0.69975  0.18170  0.54170  1.0000
  O   O814      1.0  0.94975  0.18170  0.62497  1.0000
  O   O815      1.0  0.94975  0.06830  0.62497  1.0000
  O   O816      1.0  0.69860  0.00170  0.54420  1.0000
  O   O817      1.0  0.94860  0.24830  0.62247  1.0000
  O   O818      1.0  0.80140  0.25170  0.45580  1.0000
  O   O819      1.0  0.94860  0.00170  0.62247  1.0000
  O   O820      1.0  0.66450  0.01925  0.65740  1.0000
  O   O821      1.0  0.91450  0.23075  0.50927  1.0000
  O   O822      1.0  0.83550  0.26925  0.34260  1.0000
  O   O823      1.0  0.91450  0.01925  0.50927  1.0000
  O   O824      1.0  0.58515  0.02225  0.43850  1.0000
  O   O825      1.0  0.83515  0.02225  0.39483  1.0000
  O   O826      1.0  0.91485  0.27225  0.56150  1.0000
  O   O827      1.0  0.83515  0.22775  0.39483  1.0000
  O   O828      1.0  0.91485  0.47775  0.56150  1.0000
  O   O829      1.0  0.62855  0.03315  0.60353  1.0000
  O   O830      1.0  0.87145  0.46685  0.39647  1.0000
  O   O831      1.0  0.87855  0.21685  0.56313  1.0000
  O   O832      1.0  0.87145  0.28315  0.39647  1.0000
  O   O833      1.0  0.87855  0.03315  0.56313  1.0000
  O   O834      1.0  0.64550  0.06480  0.36867  1.0000
  O   O835      1.0  0.89550  0.18520  0.46467  1.0000
  O   O836      1.0  0.85450  0.31480  0.63133  1.0000
  O   O837      1.0  0.89550  0.06480  0.46467  1.0000
  O   O838      1.0  0.60170  0.02275  0.34250  1.0000
  O   O839      1.0  0.89830  0.47725  0.65750  1.0000
  O   O840      1.0  0.85170  0.22725  0.49083  1.0000
  O   O841      1.0  0.89830  0.27275  0.65750  1.0000
  O   O842      1.0  0.85170  0.02275  0.49083  1.0000
  O   O843      1.0  0.64680  0.00050  0.38547  1.0000
  O   O844      1.0  0.89680  0.24950  0.44787  1.0000
  O   O845      1.0  0.85320  0.25050  0.61453  1.0000
  O   O846      1.0  0.89680  0.00050  0.44787  1.0000
  O   O847      1.0  0.55375  0.06325  0.36277  1.0000
  O   O848      1.0  0.94625  0.43675  0.63723  1.0000
  O   O849      1.0  0.80375  0.18675  0.47057  1.0000
  O   O850      1.0  0.94625  0.31325  0.63723  1.0000
  O   O851      1.0  0.80375  0.06325  0.47057  1.0000
  O   O852      1.0  0.54230  0.01850  0.64810  1.0000
  O   O853      1.0  0.95770  0.48150  0.35190  1.0000
  O   O854      1.0  0.79230  0.23150  0.51857  1.0000
  O   O855      1.0  0.95770  0.26850  0.35190  1.0000
  O   O856      1.0  0.79230  0.01850  0.51857  1.0000
  O   O857      1.0  0.56505  0.03905  0.58900  1.0000
  O   O858      1.0  0.93495  0.46095  0.41100  1.0000
  O   O859      1.0  0.81505  0.21095  0.57767  1.0000
  O   O860      1.0  0.93495  0.28905  0.41100  1.0000
  O   O861      1.0  0.81505  0.03905  0.57767  1.0000
  O   O862      1.0  0.71360  0.22945  0.42773  1.0000
  O   O863      1.0  0.71360  0.02055  0.42773  1.0000
  O   O864      1.0  0.96360  0.02055  0.40560  1.0000
  O   O865      1.0  0.78640  0.27055  0.57227  1.0000
  O   O866      1.0  0.96360  0.22945  0.40560  1.0000
  O   O867      1.0  0.61005  0.06565  0.54853  1.0000
  O   O868      1.0  0.88995  0.43435  0.45147  1.0000
  O   O869      1.0  0.86005  0.18435  0.61813  1.0000
  O   O870      1.0  0.88995  0.31565  0.45147  1.0000
  O   O871      1.0  0.86005  0.06565  0.61813  1.0000
  O   O872      1.0  0.50445  0.07260  0.40563  1.0000
  O   O873      1.0  0.75445  0.07260  0.42770  1.0000
  O   O874      1.0  0.99555  0.32260  0.59437  1.0000
  O   O875      1.0  0.75445  0.17740  0.42770  1.0000
  O   O876      1.0  0.99555  0.42740  0.59437  1.0000
  O   O877      1.0  0.56595  0.08445  0.42477  1.0000
  O   O878      1.0  0.81595  0.08445  0.40857  1.0000
  O   O879      1.0  0.93405  0.33445  0.57523  1.0000
  O   O880      1.0  0.81595  0.16555  0.40857  1.0000
  O   O881      1.0  0.93405  0.41555  0.57523  1.0000
  O   O882      1.0  0.53685  0.12500  0.38103  1.0000
  O   O883      1.0  0.78685  0.12500  0.45230  1.0000
  O   O884      1.0  0.96315  0.37500  0.61897  1.0000
  O   O885      1.0  0.58915  0.06945  0.48537  1.0000
  O   O886      1.0  0.83915  0.06945  0.34797  1.0000
  O   O887      1.0  0.91085  0.31945  0.51463  1.0000
  O   O888      1.0  0.83915  0.18055  0.34797  1.0000
  O   O889      1.0  0.91085  0.43055  0.51463  1.0000
  O   O890      1.0  0.62950  0.07090  0.43300  1.0000
  O   O891      1.0  0.87950  0.07090  0.40033  1.0000
  O   O892      1.0  0.87050  0.32090  0.56700  1.0000
  O   O893      1.0  0.87950  0.17910  0.40033  1.0000
  O   O894      1.0  0.87050  0.42910  0.56700  1.0000
  O   O895      1.0  0.60285  0.12500  0.51930  1.0000
  O   O896      1.0  0.85285  0.12500  0.64737  1.0000
  O   O897      1.0  0.89715  0.37500  0.48070  1.0000
  O   O898      1.0  0.65120  0.16565  0.50010  1.0000
  O   O899      1.0  0.65120  0.08435  0.50010  1.0000
  O   O900      1.0  0.90120  0.08435  0.66657  1.0000
  O   O901      1.0  0.84880  0.33435  0.49990  1.0000
  O   O902      1.0  0.90120  0.16565  0.66657  1.0000
  O   O903      1.0  0.84880  0.41565  0.49990  1.0000
  O   O904      1.0  0.70260  0.12500  0.50683  1.0000
  O   O905      1.0  0.95260  0.12500  0.65983  1.0000
  O   O906      1.0  0.70955  0.18350  0.47583  1.0000
  O   O907      1.0  0.70955  0.06650  0.47583  1.0000
  O   O908      1.0  0.95955  0.06650  0.35750  1.0000
  O   O909      1.0  0.95955  0.18350  0.35750  1.0000
  O   O910      1.0  0.69115  0.16850  0.41353  1.0000
  O   O911      1.0  0.69115  0.08150  0.41353  1.0000
  O   O912      1.0  0.94115  0.08150  0.41980  1.0000
  O   O913      1.0  0.80885  0.33150  0.58647  1.0000
  O   O914      1.0  0.94115  0.16850  0.41980  1.0000
  O   O915      1.0  0.64420  0.12500  0.39710  1.0000
  O   O916      1.0  0.89420  0.12500  0.43623  1.0000
  O   O917      1.0  0.85580  0.37500  0.60290  1.0000
  Si  Si369     1.0  0.71070  0.03555  0.56327  1.0000
  Si  Si370     1.0  0.96070  0.21445  0.60340  1.0000
  Si  Si371     1.0  0.96070  0.03555  0.60340  1.0000
  Si  Si372     1.0  0.66295  0.01680  0.61667  1.0000
  Si  Si373     1.0  0.91295  0.23320  0.55000  1.0000
  Si  Si374     1.0  0.83705  0.26680  0.38333  1.0000
  Si  Si375     1.0  0.91295  0.01680  0.55000  1.0000
  Si  Si376     1.0  0.63960  0.02680  0.35517  1.0000
  Si  Si377     1.0  0.88960  0.22320  0.47817  1.0000
  Si  Si378     1.0  0.86040  0.27680  0.64483  1.0000
  Si  Si379     1.0  0.88960  0.02680  0.47817  1.0000
  Si  Si380     1.0  0.56230  0.02570  0.34937  1.0000
  Si  Si381     1.0  0.93770  0.47430  0.65063  1.0000
  Si  Si382     1.0  0.81230  0.22430  0.48397  1.0000
  Si  Si383     1.0  0.93770  0.27570  0.65063  1.0000
  Si  Si384     1.0  0.81230  0.02570  0.48397  1.0000
  Si  Si385     1.0  0.53605  0.01800  0.60777  1.0000
  Si  Si386     1.0  0.96395  0.48200  0.39223  1.0000
  Si  Si387     1.0  0.78605  0.23200  0.55890  1.0000
  Si  Si388     1.0  0.96395  0.26800  0.39223  1.0000
  Si  Si389     1.0  0.78605  0.01800  0.55890  1.0000
  Si  Si390     1.0  0.60170  0.03435  0.57323  1.0000
  Si  Si391     1.0  0.89830  0.46565  0.42677  1.0000
  Si  Si392     1.0  0.85170  0.21565  0.59343  1.0000
  Si  Si393     1.0  0.89830  0.28435  0.42677  1.0000
  Si  Si394     1.0  0.85170  0.03435  0.59343  1.0000
  Si  Si395     1.0  0.54025  0.08630  0.39350  1.0000
  Si  Si396     1.0  0.79025  0.08630  0.43983  1.0000
  Si  Si397     1.0  0.95975  0.33630  0.60650  1.0000
  Si  Si398     1.0  0.79025  0.16370  0.43983  1.0000
  Si  Si399     1.0  0.95975  0.41370  0.60650  1.0000
  Si  Si400     1.0  0.59240  0.06175  0.44537  1.0000
  Si  Si401     1.0  0.84240  0.06175  0.38797  1.0000
  Si  Si402     1.0  0.90760  0.31175  0.55463  1.0000
  Si  Si403     1.0  0.84240  0.18825  0.38797  1.0000
  Si  Si404     1.0  0.90760  0.43825  0.55463  1.0000
  Si  Si405     1.0  0.61335  0.08610  0.51340  1.0000
  Si  Si406     1.0  0.86335  0.08610  0.65327  1.0000
  Si  Si407     1.0  0.88665  0.33610  0.48660  1.0000
  Si  Si408     1.0  0.86335  0.16390  0.65327  1.0000
  Si  Si409     1.0  0.88665  0.41390  0.48660  1.0000
  Si  Si410     1.0  0.69075  0.16395  0.50610  1.0000
  Si  Si411     1.0  0.69075  0.08605  0.50610  1.0000
  Si  Si412     1.0  0.94075  0.08605  0.66057  1.0000
  Si  Si413     1.0  0.94075  0.16395  0.66057  1.0000
  Si  Si414     1.0  0.71715  0.18970  0.43623  1.0000
  Si  Si415     1.0  0.71715  0.06030  0.43623  1.0000
  Si  Si416     1.0  0.96715  0.06030  0.39710  1.0000
  Si  Si417     1.0  0.96715  0.18970  0.39710  1.0000
  Si  Si418     1.0  0.65265  0.08560  0.40307  1.0000
  Si  Si419     1.0  0.90265  0.08560  0.43027  1.0000
  Si  Si420     1.0  0.84735  0.33560  0.59693  1.0000
  Si  Si421     1.0  0.90265  0.16440  0.43027  1.0000
  O   O918      1.0  0.75060  0.03495  0.90060  1.0000
  O   O919      1.0  0.99940  0.28495  0.73393  1.0000
  O   O920      1.0  0.75060  0.21505  0.90060  1.0000
  O   O921      1.0  0.99940  0.46505  0.73393  1.0000
  O   O922      1.0  0.50060  0.03495  0.93273  1.0000
  O   O923      1.0  0.69375  0.03715  0.93360  1.0000
  O   O924      1.0  0.94375  0.21285  0.89973  1.0000
  O   O925      1.0  0.80625  0.28715  0.73307  1.0000
  O   O926      1.0  0.94375  0.03715  0.89973  1.0000
  O   O927      1.0  0.69975  0.06830  0.87503  1.0000
  O   O928      1.0  0.69975  0.18170  0.87503  1.0000
  O   O929      1.0  0.94975  0.18170  0.95830  1.0000
  O   O930      1.0  0.94975  0.06830  0.95830  1.0000
  O   O931      1.0  0.69860  0.00170  0.87753  1.0000
  O   O932      1.0  0.94860  0.24830  0.95580  1.0000
  O   O933      1.0  0.80140  0.25170  0.78913  1.0000
  O   O934      1.0  0.94860  0.00170  0.95580  1.0000
  O   O935      1.0  0.66450  0.01925  0.99073  1.0000
  O   O936      1.0  0.91450  0.23075  0.84260  1.0000
  O   O937      1.0  0.83550  0.26925  0.67593  1.0000
  O   O938      1.0  0.91450  0.01925  0.84260  1.0000
  O   O939      1.0  0.58515  0.02225  0.77183  1.0000
  O   O940      1.0  0.83515  0.02225  0.72817  1.0000
  O   O941      1.0  0.91485  0.27225  0.89483  1.0000
  O   O942      1.0  0.83515  0.22775  0.72817  1.0000
  O   O943      1.0  0.91485  0.47775  0.89483  1.0000
  O   O944      1.0  0.62855  0.03315  0.93687  1.0000
  O   O945      1.0  0.87145  0.46685  0.72980  1.0000
  O   O946      1.0  0.87855  0.21685  0.89647  1.0000
  O   O947      1.0  0.87145  0.28315  0.72980  1.0000
  O   O948      1.0  0.87855  0.03315  0.89647  1.0000
  O   O949      1.0  0.64550  0.06480  0.70200  1.0000
  O   O950      1.0  0.89550  0.18520  0.79800  1.0000
  O   O951      1.0  0.85450  0.31480  0.96467  1.0000
  O   O952      1.0  0.89550  0.06480  0.79800  1.0000
  O   O953      1.0  0.60170  0.02275  0.67583  1.0000
  O   O954      1.0  0.89830  0.47725  0.99083  1.0000
  O   O955      1.0  0.85170  0.22725  0.82417  1.0000
  O   O956      1.0  0.89830  0.27275  0.99083  1.0000
  O   O957      1.0  0.85170  0.02275  0.82417  1.0000
  O   O958      1.0  0.64680  0.00050  0.71880  1.0000
  O   O959      1.0  0.89680  0.24950  0.78120  1.0000
  O   O960      1.0  0.85320  0.25050  0.94787  1.0000
  O   O961      1.0  0.89680  0.00050  0.78120  1.0000
  O   O962      1.0  0.55375  0.06325  0.69610  1.0000
  O   O963      1.0  0.94625  0.43675  0.97057  1.0000
  O   O964      1.0  0.80375  0.18675  0.80390  1.0000
  O   O965      1.0  0.94625  0.31325  0.97057  1.0000
  O   O966      1.0  0.80375  0.06325  0.80390  1.0000
  O   O967      1.0  0.54230  0.01850  0.98143  1.0000
  O   O968      1.0  0.95770  0.48150  0.68523  1.0000
  O   O969      1.0  0.79230  0.23150  0.85190  1.0000
  O   O970      1.0  0.95770  0.26850  0.68523  1.0000
  O   O971      1.0  0.79230  0.01850  0.85190  1.0000
  O   O972      1.0  0.56505  0.03905  0.92233  1.0000
  O   O973      1.0  0.93495  0.46095  0.74433  1.0000
  O   O974      1.0  0.81505  0.21095  0.91100  1.0000
  O   O975      1.0  0.93495  0.28905  0.74433  1.0000
  O   O976      1.0  0.81505  0.03905  0.91100  1.0000
  O   O977      1.0  0.71360  0.22945  0.76107  1.0000
  O   O978      1.0  0.71360  0.02055  0.76107  1.0000
  O   O979      1.0  0.96360  0.02055  0.73893  1.0000
  O   O980      1.0  0.78640  0.27055  0.90560  1.0000
  O   O981      1.0  0.96360  0.22945  0.73893  1.0000
  O   O982      1.0  0.61005  0.06565  0.88187  1.0000
  O   O983      1.0  0.88995  0.43435  0.78480  1.0000
  O   O984      1.0  0.86005  0.18435  0.95147  1.0000
  O   O985      1.0  0.88995  0.31565  0.78480  1.0000
  O   O986      1.0  0.86005  0.06565  0.95147  1.0000
  O   O987      1.0  0.50445  0.07260  0.73897  1.0000
  O   O988      1.0  0.75445  0.07260  0.76103  1.0000
  O   O989      1.0  0.99555  0.32260  0.92770  1.0000
  O   O990      1.0  0.75445  0.17740  0.76103  1.0000
  O   O991      1.0  0.99555  0.42740  0.92770  1.0000
  O   O992      1.0  0.56595  0.08445  0.75810  1.0000
  O   O993      1.0  0.81595  0.08445  0.74190  1.0000
  O   O994      1.0  0.93405  0.33445  0.90857  1.0000
  O   O995      1.0  0.81595  0.16555  0.74190  1.0000
  O   O996      1.0  0.93405  0.41555  0.90857  1.0000
  O   O997      1.0  0.53685  0.12500  0.71437  1.0000
  O   O998      1.0  0.78685  0.12500  0.78563  1.0000
  O   O999      1.0  0.96315  0.37500  0.95230  1.0000
  O   O1000     1.0  0.58915  0.06945  0.81870  1.0000
  O   O1001     1.0  0.83915  0.06945  0.68130  1.0000
  O   O1002     1.0  0.91085  0.31945  0.84797  1.0000
  O   O1003     1.0  0.83915  0.18055  0.68130  1.0000
  O   O1004     1.0  0.91085  0.43055  0.84797  1.0000
  O   O1005     1.0  0.62950  0.07090  0.76633  1.0000
  O   O1006     1.0  0.87950  0.07090  0.73367  1.0000
  O   O1007     1.0  0.87050  0.32090  0.90033  1.0000
  O   O1008     1.0  0.87950  0.17910  0.73367  1.0000
  O   O1009     1.0  0.87050  0.42910  0.90033  1.0000
  O   O1010     1.0  0.60285  0.12500  0.85263  1.0000
  O   O1011     1.0  0.85285  0.12500  0.98070  1.0000
  O   O1012     1.0  0.89715  0.37500  0.81403  1.0000
  O   O1013     1.0  0.65120  0.16565  0.83343  1.0000
  O   O1014     1.0  0.65120  0.08435  0.83343  1.0000
  O   O1015     1.0  0.90120  0.08435  0.99990  1.0000
  O   O1016     1.0  0.84880  0.33435  0.83323  1.0000
  O   O1017     1.0  0.90120  0.16565  0.99990  1.0000
  O   O1018     1.0  0.84880  0.41565  0.83323  1.0000
  O   O1019     1.0  0.70260  0.12500  0.84017  1.0000
  O   O1020     1.0  0.95260  0.12500  0.99317  1.0000
  O   O1021     1.0  0.70955  0.18350  0.80917  1.0000
  O   O1022     1.0  0.70955  0.06650  0.80917  1.0000
  O   O1023     1.0  0.95955  0.06650  0.69083  1.0000
  O   O1024     1.0  0.95955  0.18350  0.69083  1.0000
  O   O1025     1.0  0.69115  0.16850  0.74687  1.0000
  O   O1026     1.0  0.69115  0.08150  0.74687  1.0000
  O   O1027     1.0  0.94115  0.08150  0.75313  1.0000
  O   O1028     1.0  0.80885  0.33150  0.91980  1.0000
  O   O1029     1.0  0.94115  0.16850  0.75313  1.0000
  O   O1030     1.0  0.64420  0.12500  0.73043  1.0000
  O   O1031     1.0  0.89420  0.12500  0.76957  1.0000
  O   O1032     1.0  0.85580  0.37500  0.93623  1.0000
  Si  Si422     1.0  0.71070  0.03555  0.89660  1.0000
  Si  Si423     1.0  0.96070  0.21445  0.93673  1.0000
  Si  Si424     1.0  0.96070  0.03555  0.93673  1.0000
  Si  Si425     1.0  0.66295  0.01680  0.95000  1.0000
  Si  Si426     1.0  0.91295  0.23320  0.88333  1.0000
  Si  Si427     1.0  0.83705  0.26680  0.71667  1.0000
  Si  Si428     1.0  0.91295  0.01680  0.88333  1.0000
  Si  Si429     1.0  0.63960  0.02680  0.68850  1.0000
  Si  Si430     1.0  0.88960  0.22320  0.81150  1.0000
  Si  Si431     1.0  0.86040  0.27680  0.97817  1.0000
  Si  Si432     1.0  0.88960  0.02680  0.81150  1.0000
  Si  Si433     1.0  0.56230  0.02570  0.68270  1.0000
  Si  Si434     1.0  0.93770  0.47430  0.98397  1.0000
  Si  Si435     1.0  0.81230  0.22430  0.81730  1.0000
  Si  Si436     1.0  0.93770  0.27570  0.98397  1.0000
  Si  Si437     1.0  0.81230  0.02570  0.81730  1.0000
  Si  Si438     1.0  0.53605  0.01800  0.94110  1.0000
  Si  Si439     1.0  0.96395  0.48200  0.72557  1.0000
  Si  Si440     1.0  0.78605  0.23200  0.89223  1.0000
  Si  Si441     1.0  0.96395  0.26800  0.72557  1.0000
  Al  Al4       1.0  0.78605  0.01800  0.89223  1.0000
  Si  Si442     1.0  0.60170  0.03435  0.90657  1.0000
  Si  Si443     1.0  0.89830  0.46565  0.76010  1.0000
  Si  Si444     1.0  0.85170  0.21565  0.92677  1.0000
  Si  Si445     1.0  0.89830  0.28435  0.76010  1.0000
  Si  Si446     1.0  0.85170  0.03435  0.92677  1.0000
  Si  Si447     1.0  0.54025  0.08630  0.72683  1.0000
  Si  Si448     1.0  0.79025  0.08630  0.77317  1.0000
  Si  Si449     1.0  0.95975  0.33630  0.93983  1.0000
  Si  Si450     1.0  0.79025  0.16370  0.77317  1.0000
  Si  Si451     1.0  0.95975  0.41370  0.93983  1.0000
  Si  Si452     1.0  0.59240  0.06175  0.77870  1.0000
  Si  Si453     1.0  0.84240  0.06175  0.72130  1.0000
  Si  Si454     1.0  0.90760  0.31175  0.88797  1.0000
  Si  Si455     1.0  0.84240  0.18825  0.72130  1.0000
  Si  Si456     1.0  0.90760  0.43825  0.88797  1.0000
  Si  Si457     1.0  0.61335  0.08610  0.84673  1.0000
  Si  Si458     1.0  0.86335  0.08610  0.98660  1.0000
  Si  Si459     1.0  0.88665  0.33610  0.81993  1.0000
  Si  Si460     1.0  0.86335  0.16390  0.98660  1.0000
  Si  Si461     1.0  0.88665  0.41390  0.81993  1.0000
  Si  Si462     1.0  0.69075  0.16395  0.83943  1.0000
  Si  Si463     1.0  0.69075  0.08605  0.83943  1.0000
  Si  Si464     1.0  0.94075  0.08605  0.99390  1.0000
  Si  Si465     1.0  0.94075  0.16395  0.99390  1.0000
  Si  Si466     1.0  0.71715  0.18970  0.76957  1.0000
  Si  Si467     1.0  0.71715  0.06030  0.76957  1.0000
  Si  Si468     1.0  0.96715  0.06030  0.73043  1.0000
  Si  Si469     1.0  0.96715  0.18970  0.73043  1.0000
  Si  Si470     1.0  0.65265  0.08560  0.73640  1.0000
  Si  Si471     1.0  0.90265  0.08560  0.76360  1.0000
  Si  Si472     1.0  0.84735  0.33560  0.93027  1.0000
  Si  Si473     1.0  0.90265  0.16440  0.76360  1.0000
  O   O1033     1.0  0.99940  0.78495  0.06727  1.0000
  O   O1034     1.0  0.99940  0.96505  0.06727  1.0000
  O   O1035     1.0  0.74940  0.96505  0.09940  1.0000
  O   O1036     1.0  0.74940  0.78495  0.09940  1.0000
  O   O1037     1.0  0.55625  0.96285  0.10027  1.0000
  O   O1038     1.0  0.80625  0.96285  0.06640  1.0000
  O   O1039     1.0  0.94375  0.71285  0.23307  1.0000
  O   O1040     1.0  0.80625  0.78715  0.06640  1.0000
  O   O1041     1.0  0.94375  0.53715  0.23307  1.0000
  O   O1042     1.0  0.55025  0.93170  0.04170  1.0000
  O   O1043     1.0  0.80025  0.93170  0.12497  1.0000
  O   O1044     1.0  0.94975  0.68170  0.29163  1.0000
  O   O1045     1.0  0.80025  0.81830  0.12497  1.0000
  O   O1046     1.0  0.94975  0.56830  0.29163  1.0000
  O   O1047     1.0  0.55140  0.99830  0.04420  1.0000
  O   O1048     1.0  0.80140  0.99830  0.12247  1.0000
  O   O1049     1.0  0.94860  0.74830  0.28913  1.0000
  O   O1050     1.0  0.80140  0.75170  0.12247  1.0000
  O   O1051     1.0  0.94860  0.50170  0.28913  1.0000
  O   O1052     1.0  0.58550  0.98075  0.15740  1.0000
  O   O1053     1.0  0.83550  0.98075  0.00927  1.0000
  O   O1054     1.0  0.91450  0.73075  0.17593  1.0000
  O   O1055     1.0  0.83550  0.76925  0.00927  1.0000
  O   O1056     1.0  0.91450  0.51925  0.17593  1.0000
  O   O1057     1.0  0.66485  0.97775  0.27183  1.0000
  O   O1058     1.0  0.91485  0.77225  0.22817  1.0000
  O   O1059     1.0  0.83515  0.72775  0.06150  1.0000
  O   O1060     1.0  0.91485  0.97775  0.22817  1.0000
  O   O1061     1.0  0.62145  0.96685  0.10353  1.0000
  O   O1062     1.0  0.87145  0.96685  0.06313  1.0000
  O   O1063     1.0  0.87855  0.71685  0.22980  1.0000
  O   O1064     1.0  0.87145  0.78315  0.06313  1.0000
  O   O1065     1.0  0.87855  0.53315  0.22980  1.0000
  O   O1066     1.0  0.60450  0.93520  0.20200  1.0000
  O   O1067     1.0  0.85450  0.93520  0.29800  1.0000
  O   O1068     1.0  0.89550  0.68520  0.13133  1.0000
  O   O1069     1.0  0.85450  0.81480  0.29800  1.0000
  O   O1070     1.0  0.89550  0.56480  0.13133  1.0000
  O   O1071     1.0  0.64830  0.97725  0.17583  1.0000
  O   O1072     1.0  0.89830  0.97725  0.32417  1.0000
  O   O1073     1.0  0.85170  0.72725  0.15750  1.0000
  O   O1074     1.0  0.89830  0.77275  0.32417  1.0000
  O   O1075     1.0  0.85170  0.52275  0.15750  1.0000
  O   O1076     1.0  0.60320  0.99950  0.21880  1.0000
  O   O1077     1.0  0.85320  0.99950  0.28120  1.0000
  O   O1078     1.0  0.89680  0.74950  0.11453  1.0000
  O   O1079     1.0  0.85320  0.75050  0.28120  1.0000
  O   O1080     1.0  0.89680  0.50050  0.11453  1.0000
  O   O1081     1.0  0.69625  0.81325  0.19610  1.0000
  O   O1082     1.0  0.69625  0.93675  0.19610  1.0000
  O   O1083     1.0  0.94625  0.93675  0.30390  1.0000
  O   O1084     1.0  0.80375  0.68675  0.13723  1.0000
  O   O1085     1.0  0.94625  0.81325  0.30390  1.0000
  O   O1086     1.0  0.70770  0.98150  0.14810  1.0000
  O   O1087     1.0  0.95770  0.98150  0.01857  1.0000
  O   O1088     1.0  0.79230  0.73150  0.18523  1.0000
  O   O1089     1.0  0.95770  0.76850  0.01857  1.0000
  O   O1090     1.0  0.68495  0.96095  0.08900  1.0000
  O   O1091     1.0  0.93495  0.96095  0.07767  1.0000
  O   O1092     1.0  0.81505  0.71095  0.24433  1.0000
  O   O1093     1.0  0.93495  0.78905  0.07767  1.0000
  O   O1094     1.0  0.53640  0.97945  0.26107  1.0000
  O   O1095     1.0  0.96360  0.52055  0.07227  1.0000
  O   O1096     1.0  0.78640  0.77055  0.23893  1.0000
  O   O1097     1.0  0.96360  0.72945  0.07227  1.0000
  O   O1098     1.0  0.78640  0.97945  0.23893  1.0000
  O   O1099     1.0  0.63995  0.93435  0.04853  1.0000
  O   O1100     1.0  0.88995  0.93435  0.11813  1.0000
  O   O1101     1.0  0.86005  0.68435  0.28480  1.0000
  O   O1102     1.0  0.88995  0.81565  0.11813  1.0000
  O   O1103     1.0  0.74555  0.92740  0.23897  1.0000
  O   O1104     1.0  0.74555  0.82260  0.23897  1.0000
  O   O1105     1.0  0.99555  0.82260  0.26103  1.0000
  O   O1106     1.0  0.99555  0.92740  0.26103  1.0000
  O   O1107     1.0  0.68405  0.91555  0.25810  1.0000
  O   O1108     1.0  0.68405  0.83445  0.25810  1.0000
  O   O1109     1.0  0.93405  0.83445  0.24190  1.0000
  O   O1110     1.0  0.81595  0.66555  0.07523  1.0000
  O   O1111     1.0  0.93405  0.91555  0.24190  1.0000
  O   O1112     1.0  0.71315  0.87500  0.21437  1.0000
  O   O1113     1.0  0.96315  0.87500  0.28563  1.0000
  O   O1114     1.0  0.66085  0.93055  0.31870  1.0000
  O   O1115     1.0  0.91085  0.81945  0.18130  1.0000
  O   O1116     1.0  0.83915  0.68055  0.01463  1.0000
  O   O1117     1.0  0.91085  0.93055  0.18130  1.0000
  O   O1118     1.0  0.62050  0.92910  0.26633  1.0000
  O   O1119     1.0  0.87950  0.57090  0.06700  1.0000
  O   O1120     1.0  0.87050  0.82090  0.23367  1.0000
  O   O1121     1.0  0.87950  0.67910  0.06700  1.0000
  O   O1122     1.0  0.87050  0.92910  0.23367  1.0000
  O   O1123     1.0  0.64715  0.87500  0.01930  1.0000
  O   O1124     1.0  0.85285  0.62500  0.31403  1.0000
  O   O1125     1.0  0.89715  0.87500  0.14737  1.0000
  O   O1126     1.0  0.59880  0.91565  0.00010  1.0000
  O   O1127     1.0  0.90120  0.58435  0.33323  1.0000
  O   O1128     1.0  0.84880  0.83435  0.16657  1.0000
  O   O1129     1.0  0.90120  0.66565  0.33323  1.0000
  O   O1130     1.0  0.84880  0.91565  0.16657  1.0000
  O   O1131     1.0  0.54740  0.87500  0.00683  1.0000
  O   O1132     1.0  0.95260  0.62500  0.32650  1.0000
  O   O1133     1.0  0.79740  0.87500  0.15983  1.0000
  O   O1134     1.0  0.54045  0.93350  0.30917  1.0000
  O   O1135     1.0  0.95955  0.56650  0.02417  1.0000
  O   O1136     1.0  0.79045  0.81650  0.19083  1.0000
  O   O1137     1.0  0.95955  0.68350  0.02417  1.0000
  O   O1138     1.0  0.79045  0.93350  0.19083  1.0000
  O   O1139     1.0  0.55885  0.91850  0.24687  1.0000
  O   O1140     1.0  0.94115  0.58150  0.08647  1.0000
  O   O1141     1.0  0.80885  0.83150  0.25313  1.0000
  O   O1142     1.0  0.94115  0.66850  0.08647  1.0000
  O   O1143     1.0  0.80885  0.91850  0.25313  1.0000
  O   O1144     1.0  0.60580  0.87500  0.23043  1.0000
  O   O1145     1.0  0.89420  0.62500  0.10290  1.0000
  O   O1146     1.0  0.85580  0.87500  0.26957  1.0000
  Si  Si474     1.0  0.53930  0.96445  0.06327  1.0000
  Si  Si475     1.0  0.78930  0.96445  0.10340  1.0000
  Si  Si476     1.0  0.96070  0.71445  0.27007  1.0000
  Si  Si477     1.0  0.78930  0.78555  0.10340  1.0000
  Si  Si478     1.0  0.96070  0.53555  0.27007  1.0000
  Si  Si479     1.0  0.58705  0.98320  0.11667  1.0000
  Si  Si480     1.0  0.83705  0.98320  0.05000  1.0000
  Si  Si481     1.0  0.91295  0.73320  0.21667  1.0000
  Si  Si482     1.0  0.83705  0.76680  0.05000  1.0000
  Si  Si483     1.0  0.91295  0.51680  0.21667  1.0000
  Si  Si484     1.0  0.61040  0.97320  0.18850  1.0000
  Si  Si485     1.0  0.86040  0.97320  0.31150  1.0000
  Si  Si486     1.0  0.88960  0.72320  0.14483  1.0000
  Si  Si487     1.0  0.86040  0.77680  0.31150  1.0000
  Si  Si488     1.0  0.88960  0.52680  0.14483  1.0000
  Si  Si489     1.0  0.68770  0.97430  0.18270  1.0000
  Si  Si490     1.0  0.93770  0.97430  0.31730  1.0000
  Si  Si491     1.0  0.81230  0.72430  0.15063  1.0000
  Si  Si492     1.0  0.93770  0.77570  0.31730  1.0000
  Si  Si493     1.0  0.71395  0.98200  0.10777  1.0000
  Si  Si494     1.0  0.96395  0.98200  0.05890  1.0000
  Si  Si495     1.0  0.96395  0.76800  0.05890  1.0000
  Si  Si496     1.0  0.64830  0.96565  0.07323  1.0000
  Si  Si497     1.0  0.89830  0.96565  0.09343  1.0000
  Si  Si498     1.0  0.85170  0.71565  0.26010  1.0000
  Si  Si499     1.0  0.89830  0.78435  0.09343  1.0000
  Si  Si500     1.0  0.70975  0.91370  0.22683  1.0000
  Si  Si501     1.0  0.70975  0.83630  0.22683  1.0000
  Si  Si502     1.0  0.95975  0.83630  0.27317  1.0000
  Si  Si503     1.0  0.95975  0.91370  0.27317  1.0000
  Si  Si504     1.0  0.65760  0.93825  0.27870  1.0000
  Si  Si505     1.0  0.90760  0.81175  0.22130  1.0000
  Si  Si506     1.0  0.84240  0.68825  0.05463  1.0000
  Si  Si507     1.0  0.90760  0.93825  0.22130  1.0000
  Si  Si508     1.0  0.63665  0.91390  0.01340  1.0000
  Si  Si509     1.0  0.88665  0.83610  0.15327  1.0000
  Si  Si510     1.0  0.86335  0.66390  0.31993  1.0000
  Si  Si511     1.0  0.88665  0.91390  0.15327  1.0000
  Si  Si512     1.0  0.55925  0.91395  0.00610  1.0000
  Si  Si513     1.0  0.94075  0.58605  0.32723  1.0000
  Si  Si514     1.0  0.80925  0.83605  0.16057  1.0000
  Si  Si515     1.0  0.94075  0.66395  0.32723  1.0000
  Si  Si516     1.0  0.80925  0.91395  0.16057  1.0000
  Si  Si517     1.0  0.53285  0.93970  0.26957  1.0000
  Si  Si518     1.0  0.96715  0.56030  0.06377  1.0000
  Si  Si519     1.0  0.78285  0.81030  0.23043  1.0000
  Si  Si520     1.0  0.96715  0.68970  0.06377  1.0000
  Si  Si521     1.0  0.78285  0.93970  0.23043  1.0000
  Si  Si522     1.0  0.59735  0.91440  0.23640  1.0000
  Si  Si523     1.0  0.90265  0.58560  0.09693  1.0000
  Si  Si524     1.0  0.84735  0.83560  0.26360  1.0000
  Si  Si525     1.0  0.90265  0.66440  0.09693  1.0000
  Si  Si526     1.0  0.84735  0.91440  0.26360  1.0000
  O   O1147     1.0  0.99940  0.78495  0.40060  1.0000
  O   O1148     1.0  0.99940  0.96505  0.40060  1.0000
  O   O1149     1.0  0.74940  0.96505  0.43273  1.0000
  O   O1150     1.0  0.74940  0.78495  0.43273  1.0000
  O   O1151     1.0  0.55625  0.96285  0.43360  1.0000
  O   O1152     1.0  0.80625  0.96285  0.39973  1.0000
  O   O1153     1.0  0.94375  0.71285  0.56640  1.0000
  O   O1154     1.0  0.80625  0.78715  0.39973  1.0000
  O   O1155     1.0  0.94375  0.53715  0.56640  1.0000
  O   O1156     1.0  0.55025  0.93170  0.37503  1.0000
  O   O1157     1.0  0.80025  0.93170  0.45830  1.0000
  O   O1158     1.0  0.94975  0.68170  0.62497  1.0000
  O   O1159     1.0  0.80025  0.81830  0.45830  1.0000
  O   O1160     1.0  0.94975  0.56830  0.62497  1.0000
  O   O1161     1.0  0.55140  0.99830  0.37753  1.0000
  O   O1162     1.0  0.80140  0.99830  0.45580  1.0000
  O   O1163     1.0  0.94860  0.74830  0.62247  1.0000
  O   O1164     1.0  0.80140  0.75170  0.45580  1.0000
  O   O1165     1.0  0.94860  0.50170  0.62247  1.0000
  O   O1166     1.0  0.58550  0.98075  0.49073  1.0000
  O   O1167     1.0  0.83550  0.98075  0.34260  1.0000
  O   O1168     1.0  0.91450  0.73075  0.50927  1.0000
  O   O1169     1.0  0.83550  0.76925  0.34260  1.0000
  O   O1170     1.0  0.91450  0.51925  0.50927  1.0000
  O   O1171     1.0  0.66485  0.97775  0.60517  1.0000
  O   O1172     1.0  0.91485  0.77225  0.56150  1.0000
  O   O1173     1.0  0.83515  0.72775  0.39483  1.0000
  O   O1174     1.0  0.91485  0.97775  0.56150  1.0000
  O   O1175     1.0  0.62145  0.96685  0.43687  1.0000
  O   O1176     1.0  0.87145  0.96685  0.39647  1.0000
  O   O1177     1.0  0.87855  0.71685  0.56313  1.0000
  O   O1178     1.0  0.87145  0.78315  0.39647  1.0000
  O   O1179     1.0  0.87855  0.53315  0.56313  1.0000
  O   O1180     1.0  0.60450  0.93520  0.53533  1.0000
  O   O1181     1.0  0.85450  0.93520  0.63133  1.0000
  O   O1182     1.0  0.89550  0.68520  0.46467  1.0000
  O   O1183     1.0  0.85450  0.81480  0.63133  1.0000
  O   O1184     1.0  0.89550  0.56480  0.46467  1.0000
  O   O1185     1.0  0.64830  0.97725  0.50917  1.0000
  O   O1186     1.0  0.89830  0.97725  0.65750  1.0000
  O   O1187     1.0  0.85170  0.72725  0.49083  1.0000
  O   O1188     1.0  0.89830  0.77275  0.65750  1.0000
  O   O1189     1.0  0.85170  0.52275  0.49083  1.0000
  O   O1190     1.0  0.60320  0.99950  0.55213  1.0000
  O   O1191     1.0  0.85320  0.99950  0.61453  1.0000
  O   O1192     1.0  0.89680  0.74950  0.44787  1.0000
  O   O1193     1.0  0.85320  0.75050  0.61453  1.0000
  O   O1194     1.0  0.89680  0.50050  0.44787  1.0000
  O   O1195     1.0  0.69625  0.81325  0.52943  1.0000
  O   O1196     1.0  0.69625  0.93675  0.52943  1.0000
  O   O1197     1.0  0.94625  0.93675  0.63723  1.0000
  O   O1198     1.0  0.80375  0.68675  0.47057  1.0000
  O   O1199     1.0  0.94625  0.81325  0.63723  1.0000
  O   O1200     1.0  0.70770  0.98150  0.48143  1.0000
  O   O1201     1.0  0.95770  0.98150  0.35190  1.0000
  O   O1202     1.0  0.79230  0.73150  0.51857  1.0000
  O   O1203     1.0  0.95770  0.76850  0.35190  1.0000
  O   O1204     1.0  0.68495  0.96095  0.42233  1.0000
  O   O1205     1.0  0.93495  0.96095  0.41100  1.0000
  O   O1206     1.0  0.81505  0.71095  0.57767  1.0000
  O   O1207     1.0  0.93495  0.78905  0.41100  1.0000
  O   O1208     1.0  0.53640  0.97945  0.59440  1.0000
  O   O1209     1.0  0.96360  0.52055  0.40560  1.0000
  O   O1210     1.0  0.78640  0.77055  0.57227  1.0000
  O   O1211     1.0  0.96360  0.72945  0.40560  1.0000
  O   O1212     1.0  0.78640  0.97945  0.57227  1.0000
  O   O1213     1.0  0.63995  0.93435  0.38187  1.0000
  O   O1214     1.0  0.88995  0.93435  0.45147  1.0000
  O   O1215     1.0  0.86005  0.68435  0.61813  1.0000
  O   O1216     1.0  0.88995  0.81565  0.45147  1.0000
  O   O1217     1.0  0.74555  0.92740  0.57230  1.0000
  O   O1218     1.0  0.74555  0.82260  0.57230  1.0000
  O   O1219     1.0  0.99555  0.82260  0.59437  1.0000
  O   O1220     1.0  0.99555  0.92740  0.59437  1.0000
  O   O1221     1.0  0.68405  0.91555  0.59143  1.0000
  O   O1222     1.0  0.68405  0.83445  0.59143  1.0000
  O   O1223     1.0  0.93405  0.83445  0.57523  1.0000
  O   O1224     1.0  0.81595  0.66555  0.40857  1.0000
  O   O1225     1.0  0.93405  0.91555  0.57523  1.0000
  O   O1226     1.0  0.71315  0.87500  0.54770  1.0000
  O   O1227     1.0  0.96315  0.87500  0.61897  1.0000
  O   O1228     1.0  0.66085  0.93055  0.65203  1.0000
  O   O1229     1.0  0.91085  0.81945  0.51463  1.0000
  O   O1230     1.0  0.83915  0.68055  0.34797  1.0000
  O   O1231     1.0  0.91085  0.93055  0.51463  1.0000
  O   O1232     1.0  0.62050  0.92910  0.59967  1.0000
  O   O1233     1.0  0.87950  0.57090  0.40033  1.0000
  O   O1234     1.0  0.87050  0.82090  0.56700  1.0000
  O   O1235     1.0  0.87950  0.67910  0.40033  1.0000
  O   O1236     1.0  0.87050  0.92910  0.56700  1.0000
  O   O1237     1.0  0.64715  0.87500  0.35263  1.0000
  O   O1238     1.0  0.85285  0.62500  0.64737  1.0000
  O   O1239     1.0  0.89715  0.87500  0.48070  1.0000
  O   O1240     1.0  0.59880  0.91565  0.33343  1.0000
  O   O1241     1.0  0.90120  0.58435  0.66657  1.0000
  O   O1242     1.0  0.84880  0.83435  0.49990  1.0000
  O   O1243     1.0  0.90120  0.66565  0.66657  1.0000
  O   O1244     1.0  0.84880  0.91565  0.49990  1.0000
  O   O1245     1.0  0.54740  0.87500  0.34017  1.0000
  O   O1246     1.0  0.95260  0.62500  0.65983  1.0000
  O   O1247     1.0  0.79740  0.87500  0.49317  1.0000
  O   O1248     1.0  0.54045  0.93350  0.64250  1.0000
  O   O1249     1.0  0.95955  0.56650  0.35750  1.0000
  O   O1250     1.0  0.79045  0.81650  0.52417  1.0000
  O   O1251     1.0  0.95955  0.68350  0.35750  1.0000
  O   O1252     1.0  0.79045  0.93350  0.52417  1.0000
  O   O1253     1.0  0.55885  0.91850  0.58020  1.0000
  O   O1254     1.0  0.94115  0.58150  0.41980  1.0000
  O   O1255     1.0  0.80885  0.83150  0.58647  1.0000
  O   O1256     1.0  0.94115  0.66850  0.41980  1.0000
  O   O1257     1.0  0.80885  0.91850  0.58647  1.0000
  O   O1258     1.0  0.60580  0.87500  0.56377  1.0000
  O   O1259     1.0  0.89420  0.62500  0.43623  1.0000
  O   O1260     1.0  0.85580  0.87500  0.60290  1.0000
  Al  Al5       1.0  0.53930  0.96445  0.39660  1.0000
  Si  Si527     1.0  0.78930  0.96445  0.43673  1.0000
  Si  Si528     1.0  0.96070  0.71445  0.60340  1.0000
  Si  Si529     1.0  0.78930  0.78555  0.43673  1.0000
  Si  Si530     1.0  0.96070  0.53555  0.60340  1.0000
  Si  Si531     1.0  0.58705  0.98320  0.45000  1.0000
  Si  Si532     1.0  0.83705  0.98320  0.38333  1.0000
  Si  Si533     1.0  0.91295  0.73320  0.55000  1.0000
  Si  Si534     1.0  0.83705  0.76680  0.38333  1.0000
  Si  Si535     1.0  0.91295  0.51680  0.55000  1.0000
  Si  Si536     1.0  0.61040  0.97320  0.52183  1.0000
  Si  Si537     1.0  0.86040  0.97320  0.64483  1.0000
  Si  Si538     1.0  0.88960  0.72320  0.47817  1.0000
  Si  Si539     1.0  0.86040  0.77680  0.64483  1.0000
  Al  Al6       1.0  0.88960  0.52680  0.47817  1.0000
  Si  Si540     1.0  0.68770  0.97430  0.51603  1.0000
  Si  Si541     1.0  0.93770  0.97430  0.65063  1.0000
  Si  Si542     1.0  0.81230  0.72430  0.48397  1.0000
  Si  Si543     1.0  0.93770  0.77570  0.65063  1.0000
  Si  Si544     1.0  0.71395  0.98200  0.44110  1.0000
  Si  Si545     1.0  0.96395  0.98200  0.39223  1.0000
  Si  Si546     1.0  0.96395  0.76800  0.39223  1.0000
  Si  Si547     1.0  0.64830  0.96565  0.40657  1.0000
  Si  Si548     1.0  0.89830  0.96565  0.42677  1.0000
  Si  Si549     1.0  0.85170  0.71565  0.59343  1.0000
  Si  Si550     1.0  0.89830  0.78435  0.42677  1.0000
  Si  Si551     1.0  0.70975  0.91370  0.56017  1.0000
  Si  Si552     1.0  0.70975  0.83630  0.56017  1.0000
  Si  Si553     1.0  0.95975  0.83630  0.60650  1.0000
  Si  Si554     1.0  0.95975  0.91370  0.60650  1.0000
  Si  Si555     1.0  0.65760  0.93825  0.61203  1.0000
  Si  Si556     1.0  0.90760  0.81175  0.55463  1.0000
  Si  Si557     1.0  0.84240  0.68825  0.38797  1.0000
  Si  Si558     1.0  0.90760  0.93825  0.55463  1.0000
  Si  Si559     1.0  0.63665  0.91390  0.34673  1.0000
  Si  Si560     1.0  0.88665  0.83610  0.48660  1.0000
  Si  Si561     1.0  0.86335  0.66390  0.65327  1.0000
  Si  Si562     1.0  0.88665  0.91390  0.48660  1.0000
  Si  Si563     1.0  0.55925  0.91395  0.33943  1.0000
  Si  Si564     1.0  0.94075  0.58605  0.66057  1.0000
  Si  Si565     1.0  0.80925  0.83605  0.49390  1.0000
  Al  Al7       1.0  0.94075  0.66395  0.66057  1.0000
  Si  Si566     1.0  0.80925  0.91395  0.49390  1.0000
  Si  Si567     1.0  0.53285  0.93970  0.60290  1.0000
  Si  Si568     1.0  0.96715  0.56030  0.39710  1.0000
  Si  Si569     1.0  0.78285  0.81030  0.56377  1.0000
  Si  Si570     1.0  0.96715  0.68970  0.39710  1.0000
  Si  Si571     1.0  0.78285  0.93970  0.56377  1.0000
  Si  Si572     1.0  0.59735  0.91440  0.56973  1.0000
  Si  Si573     1.0  0.90265  0.58560  0.43027  1.0000
  Si  Si574     1.0  0.84735  0.83560  0.59693  1.0000
  Si  Si575     1.0  0.90265  0.66440  0.43027  1.0000
  Si  Si576     1.0  0.84735  0.91440  0.59693  1.0000
  O   O1261     1.0  0.99940  0.78495  0.73393  1.0000
  O   O1262     1.0  0.99940  0.96505  0.73393  1.0000
  O   O1263     1.0  0.74940  0.96505  0.76607  1.0000
  O   O1264     1.0  0.74940  0.78495  0.76607  1.0000
  O   O1265     1.0  0.55625  0.96285  0.76693  1.0000
  O   O1266     1.0  0.80625  0.96285  0.73307  1.0000
  O   O1267     1.0  0.94375  0.71285  0.89973  1.0000
  O   O1268     1.0  0.80625  0.78715  0.73307  1.0000
  O   O1269     1.0  0.94375  0.53715  0.89973  1.0000
  O   O1270     1.0  0.55025  0.93170  0.70837  1.0000
  O   O1271     1.0  0.80025  0.93170  0.79163  1.0000
  O   O1272     1.0  0.94975  0.68170  0.95830  1.0000
  O   O1273     1.0  0.80025  0.81830  0.79163  1.0000
  O   O1274     1.0  0.94975  0.56830  0.95830  1.0000
  O   O1275     1.0  0.55140  0.99830  0.71087  1.0000
  O   O1276     1.0  0.80140  0.99830  0.78913  1.0000
  O   O1277     1.0  0.94860  0.74830  0.95580  1.0000
  O   O1278     1.0  0.80140  0.75170  0.78913  1.0000
  O   O1279     1.0  0.94860  0.50170  0.95580  1.0000
  O   O1280     1.0  0.58550  0.98075  0.82407  1.0000
  O   O1281     1.0  0.83550  0.98075  0.67593  1.0000
  O   O1282     1.0  0.91450  0.73075  0.84260  1.0000
  O   O1283     1.0  0.83550  0.76925  0.67593  1.0000
  O   O1284     1.0  0.91450  0.51925  0.84260  1.0000
  O   O1285     1.0  0.66485  0.97775  0.93850  1.0000
  O   O1286     1.0  0.91485  0.77225  0.89483  1.0000
  O   O1287     1.0  0.83515  0.72775  0.72817  1.0000
  O   O1288     1.0  0.91485  0.97775  0.89483  1.0000
  O   O1289     1.0  0.62145  0.96685  0.77020  1.0000
  O   O1290     1.0  0.87145  0.96685  0.72980  1.0000
  O   O1291     1.0  0.87855  0.71685  0.89647  1.0000
  O   O1292     1.0  0.87145  0.78315  0.72980  1.0000
  O   O1293     1.0  0.87855  0.53315  0.89647  1.0000
  O   O1294     1.0  0.60450  0.93520  0.86867  1.0000
  O   O1295     1.0  0.85450  0.93520  0.96467  1.0000
  O   O1296     1.0  0.89550  0.68520  0.79800  1.0000
  O   O1297     1.0  0.85450  0.81480  0.96467  1.0000
  O   O1298     1.0  0.89550  0.56480  0.79800  1.0000
  O   O1299     1.0  0.64830  0.97725  0.84250  1.0000
  O   O1300     1.0  0.89830  0.97725  0.99083  1.0000
  O   O1301     1.0  0.85170  0.72725  0.82417  1.0000
  O   O1302     1.0  0.89830  0.77275  0.99083  1.0000
  O   O1303     1.0  0.85170  0.52275  0.82417  1.0000
  O   O1304     1.0  0.60320  0.99950  0.88547  1.0000
  O   O1305     1.0  0.85320  0.99950  0.94787  1.0000
  O   O1306     1.0  0.89680  0.74950  0.78120  1.0000
  O   O1307     1.0  0.85320  0.75050  0.94787  1.0000
  O   O1308     1.0  0.89680  0.50050  0.78120  1.0000
  O   O1309     1.0  0.69625  0.81325  0.86277  1.0000
  O   O1310     1.0  0.69625  0.93675  0.86277  1.0000
  O   O1311     1.0  0.94625  0.93675  0.97057  1.0000
  O   O1312     1.0  0.80375  0.68675  0.80390  1.0000
  O   O1313     1.0  0.94625  0.81325  0.97057  1.0000
  O   O1314     1.0  0.70770  0.98150  0.81477  1.0000
  O   O1315     1.0  0.95770  0.98150  0.68523  1.0000
  O   O1316     1.0  0.79230  0.73150  0.85190  1.0000
  O   O1317     1.0  0.95770  0.76850  0.68523  1.0000
  O   O1318     1.0  0.68495  0.96095  0.75567  1.0000
  O   O1319     1.0  0.93495  0.96095  0.74433  1.0000
  O   O1320     1.0  0.81505  0.71095  0.91100  1.0000
  O   O1321     1.0  0.93495  0.78905  0.74433  1.0000
  O   O1322     1.0  0.53640  0.97945  0.92773  1.0000
  O   O1323     1.0  0.96360  0.52055  0.73893  1.0000
  O   O1324     1.0  0.78640  0.77055  0.90560  1.0000
  O   O1325     1.0  0.96360  0.72945  0.73893  1.0000
  O   O1326     1.0  0.78640  0.97945  0.90560  1.0000
  O   O1327     1.0  0.63995  0.93435  0.71520  1.0000
  O   O1328     1.0  0.88995  0.93435  0.78480  1.0000
  O   O1329     1.0  0.86005  0.68435  0.95147  1.0000
  O   O1330     1.0  0.88995  0.81565  0.78480  1.0000
  O   O1331     1.0  0.74555  0.92740  0.90563  1.0000
  O   O1332     1.0  0.74555  0.82260  0.90563  1.0000
  O   O1333     1.0  0.99555  0.82260  0.92770  1.0000
  O   O1334     1.0  0.99555  0.92740  0.92770  1.0000
  O   O1335     1.0  0.68405  0.91555  0.92477  1.0000
  O   O1336     1.0  0.68405  0.83445  0.92477  1.0000
  O   O1337     1.0  0.93405  0.83445  0.90857  1.0000
  O   O1338     1.0  0.81595  0.66555  0.74190  1.0000
  O   O1339     1.0  0.93405  0.91555  0.90857  1.0000
  O   O1340     1.0  0.71315  0.87500  0.88103  1.0000
  O   O1341     1.0  0.96315  0.87500  0.95230  1.0000
  O   O1342     1.0  0.66085  0.93055  0.98537  1.0000
  O   O1343     1.0  0.91085  0.81945  0.84797  1.0000
  O   O1344     1.0  0.83915  0.68055  0.68130  1.0000
  O   O1345     1.0  0.91085  0.93055  0.84797  1.0000
  O   O1346     1.0  0.62050  0.92910  0.93300  1.0000
  O   O1347     1.0  0.87950  0.57090  0.73367  1.0000
  O   O1348     1.0  0.87050  0.82090  0.90033  1.0000
  O   O1349     1.0  0.87950  0.67910  0.73367  1.0000
  O   O1350     1.0  0.87050  0.92910  0.90033  1.0000
  O   O1351     1.0  0.64715  0.87500  0.68597  1.0000
  O   O1352     1.0  0.85285  0.62500  0.98070  1.0000
  O   O1353     1.0  0.89715  0.87500  0.81403  1.0000
  O   O1354     1.0  0.59880  0.91565  0.66677  1.0000
  O   O1355     1.0  0.90120  0.58435  0.99990  1.0000
  O   O1356     1.0  0.84880  0.83435  0.83323  1.0000
  O   O1357     1.0  0.90120  0.66565  0.99990  1.0000
  O   O1358     1.0  0.84880  0.91565  0.83323  1.0000
  O   O1359     1.0  0.54740  0.87500  0.67350  1.0000
  O   O1360     1.0  0.95260  0.62500  0.99317  1.0000
  O   O1361     1.0  0.79740  0.87500  0.82650  1.0000
  O   O1362     1.0  0.54045  0.93350  0.97583  1.0000
  O   O1363     1.0  0.95955  0.56650  0.69083  1.0000
  O   O1364     1.0  0.79045  0.81650  0.85750  1.0000
  O   O1365     1.0  0.95955  0.68350  0.69083  1.0000
  O   O1366     1.0  0.79045  0.93350  0.85750  1.0000
  O   O1367     1.0  0.55885  0.91850  0.91353  1.0000
  O   O1368     1.0  0.94115  0.58150  0.75313  1.0000
  O   O1369     1.0  0.80885  0.83150  0.91980  1.0000
  O   O1370     1.0  0.94115  0.66850  0.75313  1.0000
  O   O1371     1.0  0.80885  0.91850  0.91980  1.0000
  O   O1372     1.0  0.60580  0.87500  0.89710  1.0000
  O   O1373     1.0  0.89420  0.62500  0.76957  1.0000
  O   O1374     1.0  0.85580  0.87500  0.93623  1.0000
  Si  Si577     1.0  0.53930  0.96445  0.72993  1.0000
  Si  Si578     1.0  0.78930  0.96445  0.77007  1.0000
  Si  Si579     1.0  0.96070  0.71445  0.93673  1.0000
  Si  Si580     1.0  0.78930  0.78555  0.77007  1.0000
  Si  Si581     1.0  0.96070  0.53555  0.93673  1.0000
  Si  Si582     1.0  0.58705  0.98320  0.78333  1.0000
  Si  Si583     1.0  0.83705  0.98320  0.71667  1.0000
  Si  Si584     1.0  0.91295  0.73320  0.88333  1.0000
  Si  Si585     1.0  0.83705  0.76680  0.71667  1.0000
  Si  Si586     1.0  0.91295  0.51680  0.88333  1.0000
  Si  Si587     1.0  0.61040  0.97320  0.85517  1.0000
  Si  Si588     1.0  0.86040  0.97320  0.97817  1.0000
  Si  Si589     1.0  0.88960  0.72320  0.81150  1.0000
  Si  Si590     1.0  0.86040  0.77680  0.97817  1.0000
  Si  Si591     1.0  0.88960  0.52680  0.81150  1.0000
  Si  Si592     1.0  0.68770  0.97430  0.84937  1.0000
  Si  Si593     1.0  0.93770  0.97430  0.98397  1.0000
  Si  Si594     1.0  0.81230  0.72430  0.81730  1.0000
  Si  Si595     1.0  0.93770  0.77570  0.98397  1.0000
  Si  Si596     1.0  0.71395  0.98200  0.77443  1.0000
  Si  Si597     1.0  0.96395  0.98200  0.72557  1.0000
  Si  Si598     1.0  0.96395  0.76800  0.72557  1.0000
  Si  Si599     1.0  0.64830  0.96565  0.73990  1.0000
  Si  Si600     1.0  0.89830  0.96565  0.76010  1.0000
  Si  Si601     1.0  0.85170  0.71565  0.92677  1.0000
  Si  Si602     1.0  0.89830  0.78435  0.76010  1.0000
  Si  Si603     1.0  0.70975  0.91370  0.89350  1.0000
  Si  Si604     1.0  0.70975  0.83630  0.89350  1.0000
  Si  Si605     1.0  0.95975  0.83630  0.93983  1.0000
  Si  Si606     1.0  0.95975  0.91370  0.93983  1.0000
  Si  Si607     1.0  0.65760  0.93825  0.94537  1.0000
  Al  Al8       1.0  0.90760  0.81175  0.88797  1.0000
  Si  Si608     1.0  0.84240  0.68825  0.72130  1.0000
  Si  Si609     1.0  0.90760  0.93825  0.88797  1.0000
  Si  Si610     1.0  0.63665  0.91390  0.68007  1.0000
  Si  Si611     1.0  0.88665  0.83610  0.81993  1.0000
  Si  Si612     1.0  0.86335  0.66390  0.98660  1.0000
  Si  Si613     1.0  0.88665  0.91390  0.81993  1.0000
  Si  Si614     1.0  0.55925  0.91395  0.67277  1.0000
  Si  Si615     1.0  0.94075  0.58605  0.99390  1.0000
  Si  Si616     1.0  0.80925  0.83605  0.82723  1.0000
  Si  Si617     1.0  0.94075  0.66395  0.99390  1.0000
  Si  Si618     1.0  0.80925  0.91395  0.82723  1.0000
  Si  Si619     1.0  0.53285  0.93970  0.93623  1.0000
  Si  Si620     1.0  0.96715  0.56030  0.73043  1.0000
  Si  Si621     1.0  0.78285  0.81030  0.89710  1.0000
  Si  Si622     1.0  0.96715  0.68970  0.73043  1.0000
  Si  Si623     1.0  0.78285  0.93970  0.89710  1.0000
  Si  Si624     1.0  0.59735  0.91440  0.90307  1.0000
  Si  Si625     1.0  0.90265  0.58560  0.76360  1.0000
  Si  Si626     1.0  0.84735  0.83560  0.93027  1.0000
  Si  Si627     1.0  0.90265  0.66440  0.76360  1.0000
  Si  Si628     1.0  0.84735  0.91440  0.93027  1.0000
  H   H1        1.0  0.26419  0.23057  0.24843  1.0000
  H   H2        1.0  0.13878  0.46837  0.12168  1.0000
  H   H3        1.0  0.16674  0.47844  0.19283  1.0000
  H   H4        1.0  0.21256  0.32328  0.21242  1.0000
  H   H5        1.0  0.31333  0.20204  0.15494  1.0000
  H   H6        1.0  0.22207  0.27988  0.16540  1.0000
  H   H7        1.0  0.19915  0.29856  0.10753  1.0000
  H   H8        1.0  0.22638  0.24152  0.11250  1.0000
  H   H9        1.0  0.20245  0.34409  0.27219  1.0000
  H   H10       1.0  0.32410  0.18037  0.09405  1.0000
  H   H11       1.0  0.14154  0.43303  0.27929  1.0000
  H   H12       1.0  0.16174  0.38017  0.03918  1.0000
  H   H13       1.0  0.36124  0.14637  0.32463  1.0000
  H   H14       1.0  0.11442  0.41893  0.01957  1.0000
  H   H15       1.0  0.45549  0.14784  0.33707  1.0000
  H   H16       1.0  0.39902  0.14207  0.12098  1.0000
  H   H17       1.0  0.26690  0.23368  0.56287  1.0000
  H   H18       1.0  0.14592  0.46899  0.44095  1.0000
  H   H19       1.0  0.17313  0.47886  0.50852  1.0000
  H   H20       1.0  0.21748  0.32630  0.52738  1.0000
  H   H21       1.0  0.31709  0.20804  0.47257  1.0000
  H   H22       1.0  0.22732  0.28404  0.48268  1.0000
  H   H23       1.0  0.20533  0.30270  0.42736  1.0000
  H   H24       1.0  0.23155  0.24641  0.43226  1.0000
  H   H25       1.0  0.20550  0.34569  0.58522  1.0000
  H   H26       1.0  0.32778  0.18705  0.41444  1.0000
  H   H27       1.0  0.14423  0.43353  0.59343  1.0000
  H   H28       1.0  0.16907  0.38277  0.36179  1.0000
  H   H29       1.0  0.36152  0.14710  0.63868  1.0000
  H   H30       1.0  0.12144  0.42041  0.34283  1.0000
  H   H31       1.0  0.45553  0.14815  0.64997  1.0000
  H   H32       1.0  0.40098  0.14903  0.44032  1.0000
  H   H33       1.0  0.26203  0.22811  0.88225  1.0000
  H   H34       1.0  0.14178  0.46863  0.75569  1.0000
  H   H35       1.0  0.16627  0.47841  0.82500  1.0000
  H   H36       1.0  0.21129  0.32250  0.84480  1.0000
  H   H37       1.0  0.31411  0.20329  0.78785  1.0000
  H   H38       1.0  0.22279  0.28045  0.79852  1.0000
  H   H39       1.0  0.20226  0.30064  0.74162  1.0000
  H   H40       1.0  0.22886  0.24386  0.74716  1.0000
  H   H41       1.0  0.19841  0.34197  0.90547  1.0000
  H   H42       1.0  0.32624  0.18425  0.72838  1.0000
  H   H43       1.0  0.13696  0.43217  0.91422  1.0000
  H   H44       1.0  0.16827  0.38248  0.67484  1.0000
  H   H45       1.0  0.35879  0.14014  0.96129  1.0000
  H   H46       1.0  0.12143  0.42041  0.65736  1.0000
  H   H47       1.0  0.45453  0.14030  0.97305  1.0000
  H   H48       1.0  0.39985  0.14504  0.75516  1.0000
  H   H49       1.0  0.26087  0.77191  0.11774  1.0000
  H   H50       1.0  0.21124  0.70069  0.28025  1.0000
  H   H51       1.0  0.30976  0.80314  0.14283  1.0000
  H   H52       1.0  0.21421  0.73544  0.22584  1.0000
  H   H53       1.0  0.14977  0.53126  0.28333  1.0000
  H   H54       1.0  0.11755  0.52184  0.02870  1.0000
  H   H55       1.0  0.22681  0.71887  0.11311  1.0000
  H   H56       1.0  0.29886  0.75476  0.25417  1.0000
  H   H57       1.0  0.46530  0.85308  0.29816  1.0000
  H   H58       1.0  0.14644  0.56766  0.11797  1.0000
  H   H59       1.0  0.40211  0.85691  0.16438  1.0000
  H   H60       1.0  0.16839  0.65749  0.18319  1.0000
  H   H61       1.0  0.16909  0.58002  0.18386  1.0000
  H   H62       1.0  0.35652  0.81729  0.18358  1.0000
  H   H63       1.0  0.20536  0.66075  0.09952  1.0000
  H   H64       1.0  0.31945  0.81311  0.26683  1.0000
  H   H65       1.0  0.15974  0.61954  0.08281  1.0000
  H   H66       1.0  0.36368  0.85452  0.28215  1.0000
  H   H67       1.0  0.26575  0.76636  0.43712  1.0000
  H   H68       1.0  0.21362  0.69904  0.59376  1.0000
  H   H69       1.0  0.31357  0.79708  0.46108  1.0000
  H   H70       1.0  0.21783  0.73246  0.54138  1.0000
  H   H71       1.0  0.15247  0.53102  0.59687  1.0000
  H   H72       1.0  0.12487  0.52143  0.35166  1.0000
  H   H73       1.0  0.23280  0.71407  0.43258  1.0000
  H   H74       1.0  0.30166  0.75122  0.56710  1.0000
  H   H75       1.0  0.46551  0.85096  0.61134  1.0000
  H   H76       1.0  0.15360  0.56629  0.43736  1.0000
  H   H77       1.0  0.40383  0.85063  0.48195  1.0000
  H   H78       1.0  0.17375  0.65494  0.50009  1.0000
  H   H79       1.0  0.17541  0.57849  0.50009  1.0000
  H   H80       1.0  0.35921  0.81134  0.49991  1.0000
  H   H81       1.0  0.21247  0.65687  0.41950  1.0000
  H   H82       1.0  0.32114  0.81018  0.58091  1.0000
  H   H83       1.0  0.16692  0.61702  0.40367  1.0000
  H   H84       1.0  0.36459  0.85214  0.59663  1.0000
  H   H85       1.0  0.26303  0.76945  0.75159  1.0000
  H   H86       1.0  0.20725  0.70346  0.91448  1.0000
  H   H87       1.0  0.31086  0.80139  0.77614  1.0000
  H   H88       1.0  0.21259  0.73678  0.86001  1.0000
  H   H89       1.0  0.14482  0.53170  0.91773  1.0000
  H   H90       1.0  0.12451  0.52145  0.66576  1.0000
  H   H91       1.0  0.22960  0.71663  0.74648  1.0000
  H   H92       1.0  0.29654  0.75770  0.88634  1.0000
  H   H93       1.0  0.46474  0.85885  0.93282  1.0000
  H   H94       1.0  0.14960  0.56705  0.75188  1.0000
  H   H95       1.0  0.40236  0.85600  0.79812  1.0000
  H   H96       1.0  0.16838  0.65749  0.81701  1.0000
  H   H97       1.0  0.16909  0.58002  0.81634  1.0000
  H   H98       1.0  0.35652  0.81728  0.81622  1.0000
  H   H99       1.0  0.20919  0.65866  0.73244  1.0000
  H   H100      1.0  0.31736  0.81674  0.90110  1.0000
  H   H101      1.0  0.16437  0.61791  0.71737  1.0000
  H   H102      1.0  0.36196  0.85899  0.91761  1.0000
  H   H103      1.0  0.73697  0.23055  0.24841  1.0000
  H   H104      1.0  0.79275  0.29654  0.08552  1.0000
  H   H105      1.0  0.68914  0.19861  0.22386  1.0000
  H   H106      1.0  0.78741  0.26322  0.13999  1.0000
  H   H107      1.0  0.85518  0.46830  0.08227  1.0000
  H   H108      1.0  0.87549  0.47855  0.33424  1.0000
  H   H109      1.0  0.70346  0.24230  0.11366  1.0000
  H   H110      1.0  0.77040  0.28337  0.25352  1.0000
  H   H111      1.0  0.53526  0.14115  0.06718  1.0000
  H   H112      1.0  0.85040  0.43295  0.24812  1.0000
  H   H113      1.0  0.59764  0.14400  0.20188  1.0000
  H   H114      1.0  0.64348  0.18272  0.18378  1.0000
  H   H115      1.0  0.83162  0.34251  0.18299  1.0000
  H   H116      1.0  0.83091  0.41998  0.18366  1.0000
  H   H117      1.0  0.68264  0.18326  0.09890  1.0000
  H   H118      1.0  0.79081  0.34134  0.26756  1.0000
  H   H119      1.0  0.63804  0.14101  0.08239  1.0000
  H   H120      1.0  0.83563  0.38209  0.28263  1.0000
  H   H121      1.0  0.73425  0.23364  0.56288  1.0000
  H   H122      1.0  0.78638  0.30096  0.40624  1.0000
  H   H123      1.0  0.68643  0.20292  0.53892  1.0000
  H   H124      1.0  0.78217  0.26754  0.45862  1.0000
  H   H125      1.0  0.84753  0.46898  0.40313  1.0000
  H   H126      1.0  0.87513  0.47857  0.64834  1.0000
  H   H127      1.0  0.69834  0.24878  0.43290  1.0000
  H   H128      1.0  0.76720  0.28593  0.56742  1.0000
  H   H129      1.0  0.53449  0.14904  0.38866  1.0000
  H   H130      1.0  0.84640  0.43371  0.56264  1.0000
  H   H131      1.0  0.59617  0.14937  0.51805  1.0000
  H   H132      1.0  0.64079  0.18866  0.50009  1.0000
  H   H133      1.0  0.82625  0.34506  0.49991  1.0000
  H   H134      1.0  0.82459  0.42151  0.49991  1.0000
  H   H135      1.0  0.67886  0.18982  0.41909  1.0000
  H   H136      1.0  0.78753  0.34313  0.58050  1.0000
  H   H137      1.0  0.63541  0.14786  0.40337  1.0000
  H   H138      1.0  0.83308  0.38298  0.59633  1.0000
  H   H139      1.0  0.73913  0.22809  0.88226  1.0000
  H   H140      1.0  0.78876  0.29931  0.71975  1.0000
  H   H141      1.0  0.69024  0.19686  0.85717  1.0000
  H   H142      1.0  0.78579  0.26456  0.77416  1.0000
  H   H143      1.0  0.85023  0.46874  0.71667  1.0000
  H   H144      1.0  0.88245  0.47816  0.97130  1.0000
  H   H145      1.0  0.70114  0.24524  0.74583  1.0000
  H   H146      1.0  0.77319  0.28113  0.88689  1.0000
  H   H147      1.0  0.53470  0.14692  0.70184  1.0000
  H   H148      1.0  0.85356  0.43234  0.88203  1.0000
  H   H149      1.0  0.59789  0.14309  0.83562  1.0000
  H   H150      1.0  0.64348  0.18271  0.81642  1.0000
  H   H151      1.0  0.83161  0.34251  0.81681  1.0000
  H   H152      1.0  0.83091  0.41998  0.81614  1.0000
  H   H153      1.0  0.68055  0.18689  0.73317  1.0000
  H   H154      1.0  0.79464  0.33925  0.90048  1.0000
  H   H155      1.0  0.63632  0.14548  0.71785  1.0000
  H   H156      1.0  0.84026  0.38046  0.91719  1.0000
  H   H157      1.0  0.73797  0.77189  0.11775  1.0000
  H   H158      1.0  0.85822  0.53137  0.24431  1.0000
  H   H159      1.0  0.83373  0.52159  0.17500  1.0000
  H   H160      1.0  0.68589  0.79671  0.21215  1.0000
  H   H161      1.0  0.78871  0.67750  0.15520  1.0000
  H   H162      1.0  0.77721  0.71955  0.20148  1.0000
  H   H163      1.0  0.79774  0.69936  0.25838  1.0000
  H   H164      1.0  0.77114  0.75614  0.25284  1.0000
  H   H165      1.0  0.67376  0.81575  0.27162  1.0000
  H   H166      1.0  0.80159  0.65803  0.09453  1.0000
  H   H167      1.0  0.86304  0.56783  0.08578  1.0000
  H   H168      1.0  0.64121  0.85986  0.03871  1.0000
  H   H169      1.0  0.83173  0.61752  0.32516  1.0000
  H   H170      1.0  0.87857  0.57959  0.34264  1.0000
  H   H171      1.0  0.54547  0.85970  0.02695  1.0000
  H   H172      1.0  0.60015  0.85496  0.24484  1.0000
  H   H173      1.0  0.73310  0.76632  0.43713  1.0000
  H   H174      1.0  0.85408  0.53101  0.55905  1.0000
  H   H175      1.0  0.82687  0.52114  0.49148  1.0000
  H   H176      1.0  0.68291  0.79196  0.52743  1.0000
  H   H177      1.0  0.78252  0.67370  0.47262  1.0000
  H   H178      1.0  0.77268  0.71596  0.51732  1.0000
  H   H179      1.0  0.79467  0.69730  0.57264  1.0000
  H   H180      1.0  0.76845  0.75359  0.56774  1.0000
  H   H181      1.0  0.67222  0.81295  0.58556  1.0000
  H   H182      1.0  0.79450  0.65431  0.41478  1.0000
  H   H183      1.0  0.85577  0.56647  0.40657  1.0000
  H   H184      1.0  0.63848  0.85290  0.36132  1.0000
  H   H185      1.0  0.83093  0.61723  0.63821  1.0000
  H   H186      1.0  0.87856  0.57959  0.65717  1.0000
  H   H187      1.0  0.54447  0.85185  0.35003  1.0000
  H   H188      1.0  0.59902  0.85097  0.55968  1.0000
  H   H189      1.0  0.73581  0.76943  0.75157  1.0000
  H   H190      1.0  0.86122  0.53163  0.87832  1.0000
  H   H191      1.0  0.83326  0.52156  0.80717  1.0000
  H   H192      1.0  0.68667  0.79796  0.84506  1.0000
  H   H193      1.0  0.78744  0.67672  0.78758  1.0000
  H   H194      1.0  0.77793  0.72012  0.83460  1.0000
  H   H195      1.0  0.80085  0.70144  0.89247  1.0000
  H   H196      1.0  0.77362  0.75848  0.88750  1.0000
  H   H197      1.0  0.67590  0.81963  0.90595  1.0000
  H   H198      1.0  0.79755  0.65591  0.72781  1.0000
  H   H199      1.0  0.85846  0.56697  0.72071  1.0000
  H   H200      1.0  0.63876  0.85363  0.67537  1.0000
  H   H201      1.0  0.83826  0.61983  0.96082  1.0000
  H   H202      1.0  0.88558  0.58107  0.98043  1.0000
  H   H203      1.0  0.54451  0.85216  0.66293  1.0000
  H   H204      1.0  0.60098  0.85793  0.87902  1.0000
