data_image0
_chemical_formula_structural       O192Si96
_chemical_formula_sum              "O192 Si96"
_cell_length_a       20.09
_cell_length_b       19.738
_cell_length_c       13.142
_cell_angle_alpha    90
_cell_angle_beta     90
_cell_angle_gamma    90

_space_group_name_H-M_alt    "P 1"
_space_group_IT_number       1

loop_
  _space_group_symop_operation_xyz
  'x, y, z'

loop_
  _atom_site_type_symbol
  _atom_site_label
  _atom_site_symmetry_multiplicity
  _atom_site_fract_x
  _atom_site_fract_y
  _atom_site_fract_z
  _atom_site_occupancy
  O   O1        1.0  0.50120  0.06990  0.70180  1.0000
  O   O2        1.0  0.99880  0.56990  0.20180  1.0000
  O   O3        1.0  0.50120  0.43010  0.70180  1.0000
  O   O4        1.0  0.99880  0.93010  0.20180  1.0000
  O   O5        1.0  0.49880  0.93010  0.29820  1.0000
  O   O6        1.0  0.00120  0.43010  0.79820  1.0000
  O   O7        1.0  0.49880  0.56990  0.29820  1.0000
  O   O8        1.0  0.00120  0.06990  0.79820  1.0000
  O   O9        1.0  0.38750  0.07430  0.80080  1.0000
  O   O10       1.0  0.11250  0.57430  0.30080  1.0000
  O   O11       1.0  0.38750  0.42570  0.80080  1.0000
  O   O12       1.0  0.11250  0.92570  0.30080  1.0000
  O   O13       1.0  0.61250  0.92570  0.19920  1.0000
  O   O14       1.0  0.88750  0.42570  0.69920  1.0000
  O   O15       1.0  0.61250  0.57430  0.19920  1.0000
  O   O16       1.0  0.88750  0.07430  0.69920  1.0000
  O   O17       1.0  0.39950  0.13660  0.62510  1.0000
  O   O18       1.0  0.10050  0.63660  0.12510  1.0000
  O   O19       1.0  0.39950  0.36340  0.62510  1.0000
  O   O20       1.0  0.10050  0.86340  0.12510  1.0000
  O   O21       1.0  0.60050  0.86340  0.37490  1.0000
  O   O22       1.0  0.89950  0.36340  0.87490  1.0000
  O   O23       1.0  0.60050  0.63660  0.37490  1.0000
  O   O24       1.0  0.89950  0.13660  0.87490  1.0000
  O   O25       1.0  0.39720  0.00340  0.63260  1.0000
  O   O26       1.0  0.10280  0.50340  0.13260  1.0000
  O   O27       1.0  0.39720  0.49660  0.63260  1.0000
  O   O28       1.0  0.10280  0.99660  0.13260  1.0000
  O   O29       1.0  0.60280  0.99660  0.36740  1.0000
  O   O30       1.0  0.89720  0.49660  0.86740  1.0000
  O   O31       1.0  0.60280  0.50340  0.36740  1.0000
  O   O32       1.0  0.89720  0.00340  0.86740  1.0000
  O   O33       1.0  0.32900  0.03850  0.97220  1.0000
  O   O34       1.0  0.17100  0.53850  0.47220  1.0000
  O   O35       1.0  0.32900  0.46150  0.97220  1.0000
  O   O36       1.0  0.17100  0.96150  0.47220  1.0000
  O   O37       1.0  0.67100  0.96150  0.02780  1.0000
  O   O38       1.0  0.82900  0.46150  0.52780  1.0000
  O   O39       1.0  0.67100  0.53850  0.02780  1.0000
  O   O40       1.0  0.82900  0.03850  0.52780  1.0000
  O   O41       1.0  0.32970  0.95550  0.81550  1.0000
  O   O42       1.0  0.17030  0.45550  0.31550  1.0000
  O   O43       1.0  0.32970  0.54450  0.81550  1.0000
  O   O44       1.0  0.17030  0.04450  0.31550  1.0000
  O   O45       1.0  0.67030  0.04450  0.18450  1.0000
  O   O46       1.0  0.82970  0.54450  0.68450  1.0000
  O   O47       1.0  0.67030  0.45550  0.18450  1.0000
  O   O48       1.0  0.82970  0.95550  0.68450  1.0000
  O   O49       1.0  0.25710  0.06630  0.81060  1.0000
  O   O50       1.0  0.24290  0.56630  0.31060  1.0000
  O   O51       1.0  0.25710  0.43370  0.81060  1.0000
  O   O52       1.0  0.24290  0.93370  0.31060  1.0000
  O   O53       1.0  0.74290  0.93370  0.18940  1.0000
  O   O54       1.0  0.75710  0.43370  0.68940  1.0000
  O   O55       1.0  0.74290  0.56630  0.18940  1.0000
  O   O56       1.0  0.75710  0.06630  0.68940  1.0000
  O   O57       1.0  0.29100  0.12960  0.10600  1.0000
  O   O58       1.0  0.20900  0.62960  0.60600  1.0000
  O   O59       1.0  0.29100  0.37040  0.10600  1.0000
  O   O60       1.0  0.20900  0.87040  0.60600  1.0000
  O   O61       1.0  0.70900  0.87040  0.89400  1.0000
  O   O62       1.0  0.79100  0.37040  0.39400  1.0000
  O   O63       1.0  0.70900  0.62960  0.89400  1.0000
  O   O64       1.0  0.79100  0.12960  0.39400  1.0000
  O   O65       1.0  0.20340  0.04550  0.02750  1.0000
  O   O66       1.0  0.29660  0.54550  0.52750  1.0000
  O   O67       1.0  0.20340  0.45450  0.02750  1.0000
  O   O68       1.0  0.29660  0.95450  0.52750  1.0000
  O   O69       1.0  0.79660  0.95450  0.97250  1.0000
  O   O70       1.0  0.70340  0.45450  0.47250  1.0000
  O   O71       1.0  0.79660  0.54550  0.97250  1.0000
  O   O72       1.0  0.70340  0.04550  0.47250  1.0000
  O   O73       1.0  0.29360  0.00100  0.15640  1.0000
  O   O74       1.0  0.20640  0.50100  0.65640  1.0000
  O   O75       1.0  0.29360  0.49900  0.15640  1.0000
  O   O76       1.0  0.20640  0.99900  0.65640  1.0000
  O   O77       1.0  0.70640  0.99900  0.84360  1.0000
  O   O78       1.0  0.79360  0.49900  0.34360  1.0000
  O   O79       1.0  0.70640  0.50100  0.84360  1.0000
  O   O80       1.0  0.79360  0.00100  0.34360  1.0000
  O   O81       1.0  0.10750  0.12650  0.08830  1.0000
  O   O82       1.0  0.39250  0.62650  0.58830  1.0000
  O   O83       1.0  0.10750  0.37350  0.08830  1.0000
  O   O84       1.0  0.39250  0.87350  0.58830  1.0000
  O   O85       1.0  0.89250  0.87350  0.91170  1.0000
  O   O86       1.0  0.60750  0.37350  0.41170  1.0000
  O   O87       1.0  0.89250  0.62650  0.91170  1.0000
  O   O88       1.0  0.60750  0.12650  0.41170  1.0000
  O   O89       1.0  0.08460  0.03700  0.94430  1.0000
  O   O90       1.0  0.41540  0.53700  0.44430  1.0000
  O   O91       1.0  0.08460  0.46300  0.94430  1.0000
  O   O92       1.0  0.41540  0.96300  0.44430  1.0000
  O   O93       1.0  0.91540  0.96300  0.05570  1.0000
  O   O94       1.0  0.58460  0.46300  0.55570  1.0000
  O   O95       1.0  0.91540  0.53700  0.05570  1.0000
  O   O96       1.0  0.58460  0.03700  0.55570  1.0000
  O   O97       1.0  0.13010  0.07810  0.76700  1.0000
  O   O98       1.0  0.36990  0.57810  0.26700  1.0000
  O   O99       1.0  0.13010  0.42190  0.76700  1.0000
  O   O100      1.0  0.36990  0.92190  0.26700  1.0000
  O   O101      1.0  0.86990  0.92190  0.23300  1.0000
  O   O102      1.0  0.63010  0.42190  0.73300  1.0000
  O   O103      1.0  0.86990  0.57810  0.23300  1.0000
  O   O104      1.0  0.63010  0.07810  0.73300  1.0000
  O   O105      1.0  0.07280  0.95890  0.78320  1.0000
  O   O106      1.0  0.42720  0.45890  0.28320  1.0000
  O   O107      1.0  0.07280  0.54110  0.78320  1.0000
  O   O108      1.0  0.42720  0.04110  0.28320  1.0000
  O   O109      1.0  0.92720  0.04110  0.21680  1.0000
  O   O110      1.0  0.57280  0.54110  0.71680  1.0000
  O   O111      1.0  0.92720  0.45890  0.21680  1.0000
  O   O112      1.0  0.57280  0.95890  0.71680  1.0000
  O   O113      1.0  0.22010  0.13130  0.64560  1.0000
  O   O114      1.0  0.27990  0.63130  0.14560  1.0000
  O   O115      1.0  0.22010  0.36870  0.64560  1.0000
  O   O116      1.0  0.27990  0.86870  0.14560  1.0000
  O   O117      1.0  0.77990  0.86870  0.35440  1.0000
  O   O118      1.0  0.72010  0.36870  0.85440  1.0000
  O   O119      1.0  0.77990  0.63130  0.35440  1.0000
  O   O120      1.0  0.72010  0.13130  0.85440  1.0000
  O   O121      1.0  0.49110  0.85480  0.71690  1.0000
  O   O122      1.0  0.00890  0.35480  0.21690  1.0000
  O   O123      1.0  0.49110  0.64520  0.71690  1.0000
  O   O124      1.0  0.00890  0.14520  0.21690  1.0000
  O   O125      1.0  0.50890  0.14520  0.28310  1.0000
  O   O126      1.0  0.99110  0.64520  0.78310  1.0000
  O   O127      1.0  0.50890  0.35480  0.28310  1.0000
  O   O128      1.0  0.99110  0.85480  0.78310  1.0000
  O   O129      1.0  0.36810  0.83110  0.77430  1.0000
  O   O130      1.0  0.13190  0.33110  0.27430  1.0000
  O   O131      1.0  0.36810  0.66890  0.77430  1.0000
  O   O132      1.0  0.13190  0.16890  0.27430  1.0000
  O   O133      1.0  0.63190  0.16890  0.22570  1.0000
  O   O134      1.0  0.86810  0.66890  0.72570  1.0000
  O   O135      1.0  0.63190  0.33110  0.22570  1.0000
  O   O136      1.0  0.86810  0.83110  0.72570  1.0000
  O   O137      1.0  0.42630  0.75000  0.64310  1.0000
  O   O138      1.0  0.07370  0.25000  0.14310  1.0000
  O   O139      1.0  0.57370  0.25000  0.35690  1.0000
  O   O140      1.0  0.92630  0.75000  0.85690  1.0000
  O   O141      1.0  0.32170  0.86110  0.95610  1.0000
  O   O142      1.0  0.17830  0.36110  0.45610  1.0000
  O   O143      1.0  0.32170  0.63890  0.95610  1.0000
  O   O144      1.0  0.17830  0.13890  0.45610  1.0000
  O   O145      1.0  0.67830  0.13890  0.04390  1.0000
  O   O146      1.0  0.82170  0.63890  0.54390  1.0000
  O   O147      1.0  0.67830  0.36110  0.04390  1.0000
  O   O148      1.0  0.82170  0.86110  0.54390  1.0000
  O   O149      1.0  0.24100  0.85820  0.79900  1.0000
  O   O150      1.0  0.25900  0.35820  0.29900  1.0000
  O   O151      1.0  0.24100  0.64180  0.79900  1.0000
  O   O152      1.0  0.25900  0.14180  0.29900  1.0000
  O   O153      1.0  0.75900  0.14180  0.20100  1.0000
  O   O154      1.0  0.74100  0.64180  0.70100  1.0000
  O   O155      1.0  0.75900  0.35820  0.20100  1.0000
  O   O156      1.0  0.74100  0.85820  0.70100  1.0000
  O   O157      1.0  0.29430  0.75000  0.05790  1.0000
  O   O158      1.0  0.20570  0.25000  0.55790  1.0000
  O   O159      1.0  0.70570  0.25000  0.94210  1.0000
  O   O160      1.0  0.79430  0.75000  0.44210  1.0000
  O   O161      1.0  0.19760  0.83130  0.00030  1.0000
  O   O162      1.0  0.30240  0.33130  0.50030  1.0000
  O   O163      1.0  0.19760  0.66870  0.00030  1.0000
  O   O164      1.0  0.30240  0.16870  0.50030  1.0000
  O   O165      1.0  0.80240  0.16870  0.99970  1.0000
  O   O166      1.0  0.69760  0.66870  0.49970  1.0000
  O   O167      1.0  0.80240  0.33130  0.99970  1.0000
  O   O168      1.0  0.69760  0.83130  0.49970  1.0000
  O   O169      1.0  0.09480  0.75000  0.02050  1.0000
  O   O170      1.0  0.40520  0.25000  0.52050  1.0000
  O   O171      1.0  0.90520  0.25000  0.97950  1.0000
  O   O172      1.0  0.59480  0.75000  0.47950  1.0000
  O   O173      1.0  0.08090  0.86700  0.92750  1.0000
  O   O174      1.0  0.41910  0.36700  0.42750  1.0000
  O   O175      1.0  0.08090  0.63300  0.92750  1.0000
  O   O176      1.0  0.41910  0.13300  0.42750  1.0000
  O   O177      1.0  0.91910  0.13300  0.07250  1.0000
  O   O178      1.0  0.58090  0.63300  0.57250  1.0000
  O   O179      1.0  0.91910  0.36700  0.07250  1.0000
  O   O180      1.0  0.58090  0.86700  0.57250  1.0000
  O   O181      1.0  0.11770  0.83700  0.74060  1.0000
  O   O182      1.0  0.38230  0.33700  0.24060  1.0000
  O   O183      1.0  0.11770  0.66300  0.74060  1.0000
  O   O184      1.0  0.38230  0.16300  0.24060  1.0000
  O   O185      1.0  0.88230  0.16300  0.25940  1.0000
  O   O186      1.0  0.61770  0.66300  0.75940  1.0000
  O   O187      1.0  0.88230  0.33700  0.25940  1.0000
  O   O188      1.0  0.61770  0.83700  0.75940  1.0000
  O   O189      1.0  0.21160  0.75000  0.69130  1.0000
  O   O190      1.0  0.28840  0.25000  0.19130  1.0000
  O   O191      1.0  0.78840  0.25000  0.30870  1.0000
  O   O192      1.0  0.71160  0.75000  0.80870  1.0000
  Si  Si1       1.0  0.42140  0.07110  0.68980  1.0000
  Si  Si2       1.0  0.07860  0.57110  0.18980  1.0000
  Si  Si3       1.0  0.42140  0.42890  0.68980  1.0000
  Si  Si4       1.0  0.07860  0.92890  0.18980  1.0000
  Si  Si5       1.0  0.57860  0.92890  0.31020  1.0000
  Si  Si6       1.0  0.92140  0.42890  0.81020  1.0000
  Si  Si7       1.0  0.57860  0.57110  0.31020  1.0000
  Si  Si8       1.0  0.92140  0.07110  0.81020  1.0000
  Si  Si9       1.0  0.32590  0.03360  0.85000  1.0000
  Si  Si10      1.0  0.17410  0.53360  0.35000  1.0000
  Si  Si11      1.0  0.32590  0.46640  0.85000  1.0000
  Si  Si12      1.0  0.17410  0.96640  0.35000  1.0000
  Si  Si13      1.0  0.67410  0.96640  0.15000  1.0000
  Si  Si14      1.0  0.82590  0.46640  0.65000  1.0000
  Si  Si15      1.0  0.67410  0.53360  0.15000  1.0000
  Si  Si16      1.0  0.82590  0.03360  0.65000  1.0000
  Si  Si17      1.0  0.27920  0.05360  0.06550  1.0000
  Si  Si18      1.0  0.22080  0.55360  0.56550  1.0000
  Si  Si19      1.0  0.27920  0.44640  0.06550  1.0000
  Si  Si20      1.0  0.22080  0.94640  0.56550  1.0000
  Si  Si21      1.0  0.72080  0.94640  0.93450  1.0000
  Si  Si22      1.0  0.77920  0.44640  0.43450  1.0000
  Si  Si23      1.0  0.72080  0.55360  0.93450  1.0000
  Si  Si24      1.0  0.77920  0.05360  0.43450  1.0000
  Si  Si25      1.0  0.12460  0.05140  0.04810  1.0000
  Si  Si26      1.0  0.37540  0.55140  0.54810  1.0000
  Si  Si27      1.0  0.12460  0.44860  0.04810  1.0000
  Si  Si28      1.0  0.37540  0.94860  0.54810  1.0000
  Si  Si29      1.0  0.87540  0.94860  0.95190  1.0000
  Si  Si30      1.0  0.62460  0.44860  0.45190  1.0000
  Si  Si31      1.0  0.87540  0.55140  0.95190  1.0000
  Si  Si32      1.0  0.62460  0.05140  0.45190  1.0000
  Si  Si33      1.0  0.07210  0.03600  0.82330  1.0000
  Si  Si34      1.0  0.42790  0.53600  0.32330  1.0000
  Si  Si35      1.0  0.07210  0.46400  0.82330  1.0000
  Si  Si36      1.0  0.42790  0.96400  0.32330  1.0000
  Si  Si37      1.0  0.92790  0.96400  0.17670  1.0000
  Si  Si38      1.0  0.57210  0.46400  0.67670  1.0000
  Si  Si39      1.0  0.92790  0.53600  0.17670  1.0000
  Si  Si40      1.0  0.57210  0.03600  0.67670  1.0000
  Si  Si41      1.0  0.20340  0.06870  0.71970  1.0000
  Si  Si42      1.0  0.29660  0.56870  0.21970  1.0000
  Si  Si43      1.0  0.20340  0.43130  0.71970  1.0000
  Si  Si44      1.0  0.29660  0.93130  0.21970  1.0000
  Si  Si45      1.0  0.79660  0.93130  0.28030  1.0000
  Si  Si46      1.0  0.70340  0.43130  0.78030  1.0000
  Si  Si47      1.0  0.79660  0.56870  0.28030  1.0000
  Si  Si48      1.0  0.70340  0.06870  0.78030  1.0000
  Si  Si49      1.0  0.41950  0.82740  0.68050  1.0000
  Si  Si50      1.0  0.08050  0.32740  0.18050  1.0000
  Si  Si51      1.0  0.41950  0.67260  0.68050  1.0000
  Si  Si52      1.0  0.08050  0.17260  0.18050  1.0000
  Si  Si53      1.0  0.58050  0.17260  0.31950  1.0000
  Si  Si54      1.0  0.91950  0.67260  0.81950  1.0000
  Si  Si55      1.0  0.58050  0.32740  0.31950  1.0000
  Si  Si56      1.0  0.91950  0.82740  0.81950  1.0000
  Si  Si57      1.0  0.31520  0.87650  0.83610  1.0000
  Si  Si58      1.0  0.18480  0.37650  0.33610  1.0000
  Si  Si59      1.0  0.31520  0.62350  0.83610  1.0000
  Si  Si60      1.0  0.18480  0.12350  0.33610  1.0000
  Si  Si61      1.0  0.68480  0.12350  0.16390  1.0000
  Si  Si62      1.0  0.81520  0.62350  0.66390  1.0000
  Si  Si63      1.0  0.68480  0.37650  0.16390  1.0000
  Si  Si64      1.0  0.81520  0.87650  0.66390  1.0000
  Si  Si65      1.0  0.27330  0.82780  0.04020  1.0000
  Si  Si66      1.0  0.22670  0.32780  0.54020  1.0000
  Si  Si67      1.0  0.27330  0.67220  0.04020  1.0000
  Si  Si68      1.0  0.22670  0.17220  0.54020  1.0000
  Si  Si69      1.0  0.72670  0.17220  0.95980  1.0000
  Si  Si70      1.0  0.77330  0.67220  0.45980  1.0000
  Si  Si71      1.0  0.72670  0.32780  0.95980  1.0000
  Si  Si72      1.0  0.77330  0.82780  0.45980  1.0000
  Si  Si73      1.0  0.11850  0.82790  0.01830  1.0000
  Si  Si74      1.0  0.38150  0.32790  0.51830  1.0000
  Si  Si75      1.0  0.11850  0.67210  0.01830  1.0000
  Si  Si76      1.0  0.38150  0.17210  0.51830  1.0000
  Si  Si77      1.0  0.88150  0.17210  0.98170  1.0000
  Si  Si78      1.0  0.61850  0.67210  0.48170  1.0000
  Si  Si79      1.0  0.88150  0.32790  0.98170  1.0000
  Si  Si80      1.0  0.61850  0.82790  0.48170  1.0000
  Si  Si81      1.0  0.06570  0.87940  0.80870  1.0000
  Si  Si82      1.0  0.43430  0.37940  0.30870  1.0000
  Si  Si83      1.0  0.06570  0.62060  0.80870  1.0000
  Si  Si84      1.0  0.43430  0.12060  0.30870  1.0000
  Si  Si85      1.0  0.93430  0.12060  0.19130  1.0000
  Si  Si86      1.0  0.56570  0.62060  0.69130  1.0000
  Si  Si87      1.0  0.93430  0.37940  0.19130  1.0000
  Si  Si88      1.0  0.56570  0.87940  0.69130  1.0000
  Si  Si89      1.0  0.19470  0.82880  0.70920  1.0000
  Si  Si90      1.0  0.30530  0.32880  0.20920  1.0000
  Si  Si91      1.0  0.19470  0.67120  0.70920  1.0000
  Si  Si92      1.0  0.30530  0.17120  0.20920  1.0000
  Si  Si93      1.0  0.80530  0.17120  0.29080  1.0000
  Si  Si94      1.0  0.69470  0.67120  0.79080  1.0000
  Si  Si95      1.0  0.80530  0.32880  0.29080  1.0000
  Si  Si96      1.0  0.69470  0.82880  0.79080  1.0000
loop_
_geom_bond_atom_site_label_1
_geom_bond_atom_site_label_2
_geom_bond_distance
Si1        O1             1.6111
Si1        O9             1.6112
Si1        O17            1.6087
Si1        O25            1.6084
Si2        O2             1.6111
Si2        O10            1.6112
Si2        O18            1.6087
Si2        O26            1.6084
Si3        O3             1.6111
Si3        O11            1.6112
Si3        O19            1.6087
Si3        O27            1.6084
Si4        O4             1.6111
Si4        O12            1.6112
Si4        O20            1.6087
Si4        O28            1.6084
Si5        O5             1.6111
Si5        O13            1.6112
Si5        O21            1.6087
Si5        O29            1.6084
Si6        O6             1.6111
Si6        O14            1.6112
Si6        O22            1.6087
Si6        O30            1.6084
Si7        O7             1.6111
Si7        O15            1.6112
Si7        O23            1.6087
Si7        O31            1.6084
Si8        O8             1.6111
Si8        O16            1.6112
Si8        O24            1.6087
Si8        O32            1.6084
Si9        O9             1.6109
Si9        O33            1.6101
Si9        O41            1.6086
Si9        O49            1.6109
Si10       O10            1.6109
Si10       O34            1.6101
Si10       O42            1.6086
Si10       O50            1.6109
Si11       O11            1.6109
Si11       O35            1.6101
Si11       O43            1.6086
Si11       O51            1.6109
Si12       O12            1.6109
Si12       O36            1.6101
Si12       O44            1.6086
Si12       O52            1.6109
Si13       O13            1.6109
Si13       O37            1.6101
Si13       O45            1.6086
Si13       O53            1.6109
Si14       O14            1.6109
Si14       O38            1.6101
Si14       O46            1.6086
Si14       O54            1.6109
Si15       O15            1.6109
Si15       O39            1.6101
Si15       O47            1.6086
Si15       O55            1.6109
Si16       O16            1.6109
Si16       O40            1.6101
Si16       O48            1.6086
Si16       O56            1.6109
Si17       O33            1.6104
Si17       O57            1.6093
Si17       O65            1.6106
Si17       O73            1.6089
Si18       O34            1.6104
Si18       O58            1.6093
Si18       O66            1.6106
Si18       O74            1.6089
Si19       O35            1.6104
Si19       O59            1.6093
Si19       O67            1.6106
Si19       O75            1.6089
Si20       O36            1.6104
Si20       O60            1.6093
Si20       O68            1.6106
Si20       O76            1.6089
Si21       O37            1.6104
Si21       O61            1.6093
Si21       O69            1.6106
Si21       O77            1.6089
Si22       O38            1.6104
Si22       O62            1.6093
Si22       O70            1.6106
Si22       O78            1.6089
Si23       O39            1.6104
Si23       O63            1.6093
Si23       O71            1.6106
Si23       O79            1.6089
Si24       O40            1.6104
Si24       O64            1.6093
Si24       O72            1.6106
Si24       O80            1.6089
Si25       O28            1.6109
Si25       O65            1.6103
Si25       O81            1.6107
Si25       O89            1.6086
Si26       O27            1.6109
Si26       O66            1.6103
Si26       O82            1.6107
Si26       O90            1.6086
Si27       O26            1.6109
Si27       O67            1.6103
Si27       O83            1.6107
Si27       O91            1.6086
Si28       O25            1.6109
Si28       O68            1.6103
Si28       O84            1.6107
Si28       O92            1.6086
Si29       O32            1.6109
Si29       O69            1.6103
Si29       O85            1.6107
Si29       O93            1.6086
Si30       O31            1.6109
Si30       O70            1.6103
Si30       O86            1.6107
Si30       O94            1.6086
Si31       O30            1.6109
Si31       O71            1.6103
Si31       O87            1.6107
Si31       O95            1.6086
Si32       O29            1.6109
Si32       O72            1.6103
Si32       O88            1.6107
Si32       O96            1.6086
Si33       O8             1.6079
Si33       O89            1.6100
Si33       O97            1.6111
Si33       O105           1.6105
Si34       O7             1.6079
Si34       O90            1.6100
Si34       O98            1.6111
Si34       O106           1.6105
Si35       O6             1.6079
Si35       O91            1.6100
Si35       O99            1.6111
Si35       O107           1.6105
Si36       O5             1.6079
Si36       O92            1.6100
Si36       O100           1.6111
Si36       O108           1.6105
Si37       O4             1.6079
Si37       O93            1.6100
Si37       O101           1.6111
Si37       O109           1.6105
Si38       O3             1.6079
Si38       O94            1.6100
Si38       O102           1.6111
Si38       O110           1.6105
Si39       O2             1.6079
Si39       O95            1.6100
Si39       O103           1.6111
Si39       O111           1.6105
Si40       O1             1.6079
Si40       O96            1.6100
Si40       O104           1.6111
Si40       O112           1.6105
Si41       O49            1.6103
Si41       O76            1.6088
Si41       O97            1.6092
Si41       O113           1.6086
Si42       O50            1.6103
Si42       O75            1.6088
Si42       O98            1.6092
Si42       O114           1.6086
Si43       O51            1.6103
Si43       O74            1.6088
Si43       O99            1.6092
Si43       O115           1.6086
Si44       O52            1.6103
Si44       O73            1.6088
Si44       O100           1.6092
Si44       O116           1.6086
Si45       O53            1.6103
Si45       O80            1.6088
Si45       O101           1.6092
Si45       O117           1.6086
Si46       O54            1.6103
Si46       O79            1.6088
Si46       O102           1.6092
Si46       O118           1.6086
Si47       O55            1.6103
Si47       O78            1.6088
Si47       O103           1.6092
Si47       O119           1.6086
Si48       O56            1.6103
Si48       O77            1.6088
Si48       O104           1.6092
Si48       O120           1.6086
Si49       O84            1.6095
Si49       O121           1.6095
Si49       O129           1.6097
Si49       O137           1.6106
Si50       O83            1.6095
Si50       O122           1.6095
Si50       O130           1.6097
Si50       O138           1.6106
Si51       O82            1.6095
Si51       O123           1.6095
Si51       O131           1.6097
Si51       O137           1.6106
Si52       O81            1.6095
Si52       O124           1.6095
Si52       O132           1.6097
Si52       O138           1.6106
Si53       O88            1.6095
Si53       O125           1.6095
Si53       O133           1.6097
Si53       O139           1.6106
Si54       O87            1.6095
Si54       O126           1.6095
Si54       O134           1.6097
Si54       O140           1.6106
Si55       O86            1.6095
Si55       O127           1.6095
Si55       O135           1.6097
Si55       O139           1.6106
Si56       O85            1.6095
Si56       O128           1.6095
Si56       O136           1.6097
Si56       O140           1.6106
Si57       O41            1.6092
Si57       O129           1.6100
Si57       O141           1.6114
Si57       O149           1.6094
Si58       O42            1.6092
Si58       O130           1.6100
Si58       O142           1.6114
Si58       O150           1.6094
Si59       O43            1.6092
Si59       O131           1.6100
Si59       O143           1.6114
Si59       O151           1.6094
Si60       O44            1.6092
Si60       O132           1.6100
Si60       O144           1.6114
Si60       O152           1.6094
Si61       O45            1.6092
Si61       O133           1.6100
Si61       O145           1.6114
Si61       O153           1.6094
Si62       O46            1.6092
Si62       O134           1.6100
Si62       O146           1.6114
Si62       O154           1.6094
Si63       O47            1.6092
Si63       O135           1.6100
Si63       O147           1.6114
Si63       O155           1.6094
Si64       O48            1.6092
Si64       O136           1.6100
Si64       O148           1.6114
Si64       O156           1.6094
Si65       O116           1.6087
Si65       O141           1.6122
Si65       O157           1.6094
Si65       O161           1.6102
Si66       O115           1.6087
Si66       O142           1.6122
Si66       O158           1.6094
Si66       O162           1.6102
Si67       O114           1.6087
Si67       O143           1.6122
Si67       O157           1.6094
Si67       O163           1.6102
Si68       O113           1.6087
Si68       O144           1.6122
Si68       O158           1.6094
Si68       O164           1.6102
Si69       O120           1.6087
Si69       O145           1.6122
Si69       O159           1.6094
Si69       O165           1.6102
Si70       O119           1.6087
Si70       O146           1.6122
Si70       O160           1.6094
Si70       O166           1.6102
Si71       O118           1.6087
Si71       O147           1.6122
Si71       O159           1.6094
Si71       O167           1.6102
Si72       O117           1.6087
Si72       O148           1.6122
Si72       O160           1.6094
Si72       O168           1.6102
Si73       O20            1.6099
Si73       O161           1.6080
Si73       O169           1.6099
Si73       O173           1.6094
Si74       O19            1.6099
Si74       O162           1.6080
Si74       O170           1.6099
Si74       O174           1.6094
Si75       O18            1.6099
Si75       O163           1.6080
Si75       O169           1.6099
Si75       O175           1.6094
Si76       O17            1.6099
Si76       O164           1.6080
Si76       O170           1.6099
Si76       O176           1.6094
Si77       O24            1.6099
Si77       O165           1.6080
Si77       O171           1.6099
Si77       O177           1.6094
Si78       O23            1.6099
Si78       O166           1.6080
Si78       O172           1.6099
Si78       O178           1.6094
Si79       O22            1.6099
Si79       O167           1.6080
Si79       O171           1.6099
Si79       O179           1.6094
Si80       O21            1.6099
Si80       O168           1.6080
Si80       O172           1.6099
Si80       O180           1.6094
Si81       O105           1.6109
Si81       O128           1.6109
Si81       O173           1.6096
Si81       O181           1.6102
Si82       O106           1.6109
Si82       O127           1.6109
Si82       O174           1.6096
Si82       O182           1.6102
Si83       O107           1.6109
Si83       O126           1.6109
Si83       O175           1.6096
Si83       O183           1.6102
Si84       O108           1.6109
Si84       O125           1.6109
Si84       O176           1.6096
Si84       O184           1.6102
Si85       O109           1.6109
Si85       O124           1.6109
Si85       O177           1.6096
Si85       O185           1.6102
Si86       O110           1.6109
Si86       O123           1.6109
Si86       O178           1.6096
Si86       O186           1.6102
Si87       O111           1.6109
Si87       O122           1.6109
Si87       O179           1.6096
Si87       O187           1.6102
Si88       O112           1.6109
Si88       O121           1.6109
Si88       O180           1.6096
Si88       O188           1.6102
Si89       O60            1.6113
Si89       O149           1.6108
Si89       O181           1.6092
Si89       O189           1.6093
Si90       O59            1.6113
Si90       O150           1.6108
Si90       O182           1.6092
Si90       O190           1.6093
Si91       O58            1.6113
Si91       O151           1.6108
Si91       O183           1.6092
Si91       O189           1.6093
Si92       O57            1.6113
Si92       O152           1.6108
Si92       O184           1.6092
Si92       O190           1.6093
Si93       O64            1.6113
Si93       O153           1.6108
Si93       O185           1.6092
Si93       O191           1.6093
Si94       O63            1.6113
Si94       O154           1.6108
Si94       O186           1.6092
Si94       O192           1.6093
Si95       O62            1.6113
Si95       O155           1.6108
Si95       O187           1.6092
Si95       O191           1.6093
Si96       O61            1.6113
Si96       O156           1.6108
Si96       O188           1.6092
Si96       O192           1.6093
O1         Si1            1.6111
O1         Si40           1.6079
O2         Si2            1.6111
O2         Si39           1.6079
O3         Si3            1.6111
O3         Si38           1.6079
O4         Si4            1.6111
O4         Si37           1.6079
O5         Si5            1.6111
O5         Si36           1.6079
O6         Si6            1.6111
O6         Si35           1.6079
O7         Si7            1.6111
O7         Si34           1.6079
O8         Si8            1.6111
O8         Si33           1.6079
O9         Si1            1.6112
O9         Si9            1.6109
O10        Si2            1.6112
O10        Si10           1.6109
O11        Si3            1.6112
O11        Si11           1.6109
O12        Si4            1.6112
O12        Si12           1.6109
O13        Si5            1.6112
O13        Si13           1.6109
O14        Si6            1.6112
O14        Si14           1.6109
O15        Si7            1.6112
O15        Si15           1.6109
O16        Si8            1.6112
O16        Si16           1.6109
O17        Si1            1.6087
O17        Si76           1.6099
O18        Si2            1.6087
O18        Si75           1.6099
O19        Si3            1.6087
O19        Si74           1.6099
O20        Si4            1.6087
O20        Si73           1.6099
O21        Si5            1.6087
O21        Si80           1.6099
O22        Si6            1.6087
O22        Si79           1.6099
O23        Si7            1.6087
O23        Si78           1.6099
O24        Si8            1.6087
O24        Si77           1.6099
O25        Si1            1.6084
O25        Si28           1.6109
O26        Si2            1.6084
O26        Si27           1.6109
O27        Si3            1.6084
O27        Si26           1.6109
O28        Si4            1.6084
O28        Si25           1.6109
O29        Si5            1.6084
O29        Si32           1.6109
O30        Si6            1.6084
O30        Si31           1.6109
O31        Si7            1.6084
O31        Si30           1.6109
O32        Si8            1.6084
O32        Si29           1.6109
O33        Si9            1.6101
O33        Si17           1.6104
O34        Si10           1.6101
O34        Si18           1.6104
O35        Si11           1.6101
O35        Si19           1.6104
O36        Si12           1.6101
O36        Si20           1.6104
O37        Si13           1.6101
O37        Si21           1.6104
O38        Si14           1.6101
O38        Si22           1.6104
O39        Si15           1.6101
O39        Si23           1.6104
O40        Si16           1.6101
O40        Si24           1.6104
O41        Si9            1.6086
O41        Si57           1.6092
O42        Si10           1.6086
O42        Si58           1.6092
O43        Si11           1.6086
O43        Si59           1.6092
O44        Si12           1.6086
O44        Si60           1.6092
O45        Si13           1.6086
O45        Si61           1.6092
O46        Si14           1.6086
O46        Si62           1.6092
O47        Si15           1.6086
O47        Si63           1.6092
O48        Si16           1.6086
O48        Si64           1.6092
O49        Si9            1.6109
O49        Si41           1.6103
O50        Si10           1.6109
O50        Si42           1.6103
O51        Si11           1.6109
O51        Si43           1.6103
O52        Si12           1.6109
O52        Si44           1.6103
O53        Si13           1.6109
O53        Si45           1.6103
O54        Si14           1.6109
O54        Si46           1.6103
O55        Si15           1.6109
O55        Si47           1.6103
O56        Si16           1.6109
O56        Si48           1.6103
O57        Si17           1.6093
O57        Si92           1.6113
O58        Si18           1.6093
O58        Si91           1.6113
O59        Si19           1.6093
O59        Si90           1.6113
O60        Si20           1.6093
O60        Si89           1.6113
O61        Si21           1.6093
O61        Si96           1.6113
O62        Si22           1.6093
O62        Si95           1.6113
O63        Si23           1.6093
O63        Si94           1.6113
O64        Si24           1.6093
O64        Si93           1.6113
O65        Si17           1.6106
O65        Si25           1.6103
O66        Si18           1.6106
O66        Si26           1.6103
O67        Si19           1.6106
O67        Si27           1.6103
O68        Si20           1.6106
O68        Si28           1.6103
O69        Si21           1.6106
O69        Si29           1.6103
O70        Si22           1.6106
O70        Si30           1.6103
O71        Si23           1.6106
O71        Si31           1.6103
O72        Si24           1.6106
O72        Si32           1.6103
O73        Si17           1.6089
O73        Si44           1.6088
O74        Si18           1.6089
O74        Si43           1.6088
O75        Si19           1.6089
O75        Si42           1.6088
O76        Si20           1.6089
O76        Si41           1.6088
O77        Si21           1.6089
O77        Si48           1.6088
O78        Si22           1.6089
O78        Si47           1.6088
O79        Si23           1.6089
O79        Si46           1.6088
O80        Si24           1.6089
O80        Si45           1.6088
O81        Si25           1.6107
O81        Si52           1.6095
O82        Si26           1.6107
O82        Si51           1.6095
O83        Si27           1.6107
O83        Si50           1.6095
O84        Si28           1.6107
O84        Si49           1.6095
O85        Si29           1.6107
O85        Si56           1.6095
O86        Si30           1.6107
O86        Si55           1.6095
O87        Si31           1.6107
O87        Si54           1.6095
O88        Si32           1.6107
O88        Si53           1.6095
O89        Si25           1.6086
O89        Si33           1.6100
O90        Si26           1.6086
O90        Si34           1.6100
O91        Si27           1.6086
O91        Si35           1.6100
O92        Si28           1.6086
O92        Si36           1.6100
O93        Si29           1.6086
O93        Si37           1.6100
O94        Si30           1.6086
O94        Si38           1.6100
O95        Si31           1.6086
O95        Si39           1.6100
O96        Si32           1.6086
O96        Si40           1.6100
O97        Si33           1.6111
O97        Si41           1.6092
O98        Si34           1.6111
O98        Si42           1.6092
O99        Si35           1.6111
O99        Si43           1.6092
O100       Si36           1.6111
O100       Si44           1.6092
O101       Si37           1.6111
O101       Si45           1.6092
O102       Si38           1.6111
O102       Si46           1.6092
O103       Si39           1.6111
O103       Si47           1.6092
O104       Si40           1.6111
O104       Si48           1.6092
O105       Si33           1.6105
O105       Si81           1.6109
O106       Si34           1.6105
O106       Si82           1.6109
O107       Si35           1.6105
O107       Si83           1.6109
O108       Si36           1.6105
O108       Si84           1.6109
O109       Si37           1.6105
O109       Si85           1.6109
O110       Si38           1.6105
O110       Si86           1.6109
O111       Si39           1.6105
O111       Si87           1.6109
O112       Si40           1.6105
O112       Si88           1.6109
O113       Si41           1.6086
O113       Si68           1.6087
O114       Si42           1.6086
O114       Si67           1.6087
O115       Si43           1.6086
O115       Si66           1.6087
O116       Si44           1.6086
O116       Si65           1.6087
O117       Si45           1.6086
O117       Si72           1.6087
O118       Si46           1.6086
O118       Si71           1.6087
O119       Si47           1.6086
O119       Si70           1.6087
O120       Si48           1.6086
O120       Si69           1.6087
O121       Si49           1.6095
O121       Si88           1.6109
O122       Si50           1.6095
O122       Si87           1.6109
O123       Si51           1.6095
O123       Si86           1.6109
O124       Si52           1.6095
O124       Si85           1.6109
O125       Si53           1.6095
O125       Si84           1.6109
O126       Si54           1.6095
O126       Si83           1.6109
O127       Si55           1.6095
O127       Si82           1.6109
O128       Si56           1.6095
O128       Si81           1.6109
O129       Si49           1.6097
O129       Si57           1.6100
O130       Si50           1.6097
O130       Si58           1.6100
O131       Si51           1.6097
O131       Si59           1.6100
O132       Si52           1.6097
O132       Si60           1.6100
O133       Si53           1.6097
O133       Si61           1.6100
O134       Si54           1.6097
O134       Si62           1.6100
O135       Si55           1.6097
O135       Si63           1.6100
O136       Si56           1.6097
O136       Si64           1.6100
O137       Si49           1.6106
O137       Si51           1.6106
O138       Si50           1.6106
O138       Si52           1.6106
O139       Si53           1.6106
O139       Si55           1.6106
O140       Si54           1.6106
O140       Si56           1.6106
O141       Si57           1.6114
O141       Si65           1.6122
O142       Si58           1.6114
O142       Si66           1.6122
O143       Si59           1.6114
O143       Si67           1.6122
O144       Si60           1.6114
O144       Si68           1.6122
O145       Si61           1.6114
O145       Si69           1.6122
O146       Si62           1.6114
O146       Si70           1.6122
O147       Si63           1.6114
O147       Si71           1.6122
O148       Si64           1.6114
O148       Si72           1.6122
O149       Si57           1.6094
O149       Si89           1.6108
O150       Si58           1.6094
O150       Si90           1.6108
O151       Si59           1.6094
O151       Si91           1.6108
O152       Si60           1.6094
O152       Si92           1.6108
O153       Si61           1.6094
O153       Si93           1.6108
O154       Si62           1.6094
O154       Si94           1.6108
O155       Si63           1.6094
O155       Si95           1.6108
O156       Si64           1.6094
O156       Si96           1.6108
O157       Si65           1.6094
O157       Si67           1.6094
O158       Si66           1.6094
O158       Si68           1.6094
O159       Si69           1.6094
O159       Si71           1.6094
O160       Si70           1.6094
O160       Si72           1.6094
O161       Si65           1.6102
O161       Si73           1.6080
O162       Si66           1.6102
O162       Si74           1.6080
O163       Si67           1.6102
O163       Si75           1.6080
O164       Si68           1.6102
O164       Si76           1.6080
O165       Si69           1.6102
O165       Si77           1.6080
O166       Si70           1.6102
O166       Si78           1.6080
O167       Si71           1.6102
O167       Si79           1.6080
O168       Si72           1.6102
O168       Si80           1.6080
O169       Si73           1.6099
O169       Si75           1.6099
O170       Si74           1.6099
O170       Si76           1.6099
O171       Si77           1.6099
O171       Si79           1.6099
O172       Si78           1.6099
O172       Si80           1.6099
O173       Si73           1.6094
O173       Si81           1.6096
O174       Si74           1.6094
O174       Si82           1.6096
O175       Si75           1.6094
O175       Si83           1.6096
O176       Si76           1.6094
O176       Si84           1.6096
O177       Si77           1.6094
O177       Si85           1.6096
O178       Si78           1.6094
O178       Si86           1.6096
O179       Si79           1.6094
O179       Si87           1.6096
O180       Si80           1.6094
O180       Si88           1.6096
O181       Si81           1.6102
O181       Si89           1.6092
O182       Si82           1.6102
O182       Si90           1.6092
O183       Si83           1.6102
O183       Si91           1.6092
O184       Si84           1.6102
O184       Si92           1.6092
O185       Si85           1.6102
O185       Si93           1.6092
O186       Si86           1.6102
O186       Si94           1.6092
O187       Si87           1.6102
O187       Si95           1.6092
O188       Si88           1.6102
O188       Si96           1.6092
O189       Si89           1.6093
O189       Si91           1.6093
O190       Si90           1.6093
O190       Si92           1.6093
O191       Si93           1.6093
O191       Si95           1.6093
O192       Si94           1.6093
O192       Si96           1.6093
