data_image0
_chemical_formula_structural       O179Si88O179Si88O108Si51O108Si51O182Si89O182Si89O114Si52O114Si52O114Si52O114Si52O182Si89O182Si89O108Si51O108Si51O179Si88O179Si88H184
_chemical_formula_sum              "O2332 Si1120 H184"
_cell_length_a       60.27
_cell_length_b       59.214
_cell_length_c       26.284
_cell_angle_alpha    90
_cell_angle_beta     90
_cell_angle_gamma    90

_space_group_name_H-M_alt    "P 1"
_space_group_IT_number       1

loop_
  _space_group_symop_operation_xyz
  'x, y, z'

loop_
  _atom_site_type_symbol
  _atom_site_label
  _atom_site_symmetry_multiplicity
  _atom_site_fract_x
  _atom_site_fract_y
  _atom_site_fract_z
  _atom_site_occupancy
  O   O1        1.0  0.16707  0.02330  0.35090  1.0000
  O   O2        1.0  0.33293  0.18997  0.10090  1.0000
  O   O3        1.0  0.16707  0.14337  0.35090  1.0000
  O   O4        1.0  0.16627  0.31003  0.14910  1.0000
  O   O5        1.0  0.00040  0.14337  0.39910  1.0000
  O   O6        1.0  0.16627  0.18997  0.14910  1.0000
  O   O7        1.0  0.00040  0.02330  0.39910  1.0000
  O   O8        1.0  0.12917  0.02477  0.40040  1.0000
  O   O9        1.0  0.03750  0.19143  0.15040  1.0000
  O   O10       1.0  0.12917  0.14190  0.40040  1.0000
  O   O11       1.0  0.03750  0.30857  0.15040  1.0000
  O   O12       1.0  0.20417  0.30857  0.09960  1.0000
  O   O13       1.0  0.29583  0.14190  0.34960  1.0000
  O   O14       1.0  0.20417  0.19143  0.09960  1.0000
  O   O15       1.0  0.29583  0.02477  0.34960  1.0000
  O   O16       1.0  0.13317  0.04553  0.31255  1.0000
  O   O17       1.0  0.03350  0.21220  0.06255  1.0000
  O   O18       1.0  0.13317  0.12113  0.31255  1.0000
  O   O19       1.0  0.03350  0.28780  0.06255  1.0000
  O   O20       1.0  0.20017  0.28780  0.18745  1.0000
  O   O21       1.0  0.29983  0.12113  0.43745  1.0000
  O   O22       1.0  0.20017  0.21220  0.18745  1.0000
  O   O23       1.0  0.29983  0.04553  0.43745  1.0000
  O   O24       1.0  0.13240  0.00113  0.31630  1.0000
  O   O25       1.0  0.03427  0.16780  0.06630  1.0000
  O   O26       1.0  0.13240  0.16553  0.31630  1.0000
  O   O27       1.0  0.03427  0.33220  0.06630  1.0000
  O   O28       1.0  0.20093  0.33220  0.18370  1.0000
  O   O29       1.0  0.29907  0.16553  0.43370  1.0000
  O   O30       1.0  0.20093  0.16780  0.18370  1.0000
  O   O31       1.0  0.29907  0.00113  0.43370  1.0000
  O   O32       1.0  0.10967  0.01283  0.48610  1.0000
  O   O33       1.0  0.05700  0.17950  0.23610  1.0000
  O   O34       1.0  0.10967  0.15383  0.48610  1.0000
  O   O35       1.0  0.05700  0.32050  0.23610  1.0000
  O   O36       1.0  0.27633  0.15383  0.26390  1.0000
  O   O37       1.0  0.22367  0.17950  0.01390  1.0000
  O   O38       1.0  0.27633  0.01283  0.26390  1.0000
  O   O39       1.0  0.10990  0.31850  0.40775  1.0000
  O   O40       1.0  0.05677  0.15183  0.15775  1.0000
  O   O41       1.0  0.10990  0.18150  0.40775  1.0000
  O   O42       1.0  0.05677  0.01483  0.15775  1.0000
  O   O43       1.0  0.22343  0.01483  0.09225  1.0000
  O   O44       1.0  0.27657  0.18150  0.34225  1.0000
  O   O45       1.0  0.22343  0.15183  0.09225  1.0000
  O   O46       1.0  0.08570  0.02210  0.40530  1.0000
  O   O47       1.0  0.08097  0.18877  0.15530  1.0000
  O   O48       1.0  0.08570  0.14457  0.40530  1.0000
  O   O49       1.0  0.08097  0.31123  0.15530  1.0000
  O   O50       1.0  0.25237  0.14457  0.34470  1.0000
  O   O51       1.0  0.24763  0.18877  0.09470  1.0000
  O   O52       1.0  0.25237  0.02210  0.34470  1.0000
  O   O53       1.0  0.09700  0.04320  0.05300  1.0000
  O   O54       1.0  0.06967  0.20987  0.30300  1.0000
  O   O55       1.0  0.09700  0.12347  0.05300  1.0000
  O   O56       1.0  0.06967  0.29013  0.30300  1.0000
  O   O57       1.0  0.23633  0.29013  0.44700  1.0000
  O   O58       1.0  0.26367  0.12347  0.19700  1.0000
  O   O59       1.0  0.23633  0.20987  0.44700  1.0000
  O   O60       1.0  0.26367  0.04320  0.19700  1.0000
  O   O61       1.0  0.06780  0.01517  0.01375  1.0000
  O   O62       1.0  0.09887  0.18183  0.26375  1.0000
  O   O63       1.0  0.06780  0.15150  0.01375  1.0000
  O   O64       1.0  0.09887  0.31817  0.26375  1.0000
  O   O65       1.0  0.23447  0.15150  0.23625  1.0000
  O   O66       1.0  0.26553  0.18183  0.48625  1.0000
  O   O67       1.0  0.23447  0.01517  0.23625  1.0000
  O   O68       1.0  0.09787  0.00033  0.07820  1.0000
  O   O69       1.0  0.06880  0.16700  0.32820  1.0000
  O   O70       1.0  0.09787  0.16633  0.07820  1.0000
  O   O71       1.0  0.06880  0.33300  0.32820  1.0000
  O   O72       1.0  0.26453  0.16633  0.17180  1.0000
  O   O73       1.0  0.23547  0.16700  0.42180  1.0000
  O   O74       1.0  0.26453  0.00033  0.17180  1.0000
  O   O75       1.0  0.03583  0.04217  0.04415  1.0000
  O   O76       1.0  0.13083  0.20883  0.29415  1.0000
  O   O77       1.0  0.03583  0.12450  0.04415  1.0000
  O   O78       1.0  0.13083  0.29117  0.29415  1.0000
  O   O79       1.0  0.20250  0.12450  0.20585  1.0000
  O   O80       1.0  0.29750  0.20883  0.45585  1.0000
  O   O81       1.0  0.20250  0.04217  0.20585  1.0000
  O   O82       1.0  0.02820  0.01233  0.47215  1.0000
  O   O83       1.0  0.13847  0.17900  0.22215  1.0000
  O   O84       1.0  0.02820  0.15433  0.47215  1.0000
  O   O85       1.0  0.13847  0.32100  0.22215  1.0000
  O   O86       1.0  0.19487  0.15433  0.27785  1.0000
  O   O87       1.0  0.30513  0.17900  0.02785  1.0000
  O   O88       1.0  0.19487  0.01233  0.27785  1.0000
  O   O89       1.0  0.04337  0.02603  0.38350  1.0000
  O   O90       1.0  0.12330  0.19270  0.13350  1.0000
  O   O91       1.0  0.04337  0.14063  0.38350  1.0000
  O   O92       1.0  0.12330  0.30730  0.13350  1.0000
  O   O93       1.0  0.21003  0.14063  0.36650  1.0000
  O   O94       1.0  0.28997  0.19270  0.11650  1.0000
  O   O95       1.0  0.21003  0.02603  0.36650  1.0000
  O   O96       1.0  0.02427  0.31963  0.39160  1.0000
  O   O97       1.0  0.14240  0.15297  0.14160  1.0000
  O   O98       1.0  0.02427  0.18037  0.39160  1.0000
  O   O99       1.0  0.14240  0.01370  0.14160  1.0000
  O   O100      1.0  0.30907  0.01370  0.10840  1.0000
  O   O101      1.0  0.19093  0.18037  0.35840  1.0000
  O   O102      1.0  0.30907  0.15297  0.10840  1.0000
  O   O103      1.0  0.19093  0.31963  0.35840  1.0000
  O   O104      1.0  0.07337  0.04377  0.32280  1.0000
  O   O105      1.0  0.09330  0.21043  0.07280  1.0000
  O   O106      1.0  0.07337  0.12290  0.32280  1.0000
  O   O107      1.0  0.09330  0.28957  0.07280  1.0000
  O   O108      1.0  0.24003  0.12290  0.42720  1.0000
  O   O109      1.0  0.25997  0.21043  0.17720  1.0000
  O   O110      1.0  0.24003  0.04377  0.42720  1.0000
  O   O111      1.0  0.16370  0.28493  0.35845  1.0000
  O   O112      1.0  0.00297  0.11827  0.10845  1.0000
  O   O113      1.0  0.16370  0.21507  0.35845  1.0000
  O   O114      1.0  0.00297  0.04840  0.10845  1.0000
  O   O115      1.0  0.16963  0.04840  0.14155  1.0000
  O   O116      1.0  0.33037  0.21507  0.39155  1.0000
  O   O117      1.0  0.16963  0.11827  0.14155  1.0000
  O   O118      1.0  0.12270  0.27703  0.38715  1.0000
  O   O119      1.0  0.04397  0.11037  0.13715  1.0000
  O   O120      1.0  0.12270  0.22297  0.38715  1.0000
  O   O121      1.0  0.04397  0.05630  0.13715  1.0000
  O   O122      1.0  0.21063  0.05630  0.11285  1.0000
  O   O123      1.0  0.28937  0.22297  0.36285  1.0000
  O   O124      1.0  0.21063  0.11037  0.11285  1.0000
  O   O125      1.0  0.14210  0.25000  0.32155  1.0000
  O   O126      1.0  0.02457  0.08333  0.07155  1.0000
  O   O127      1.0  0.19123  0.08333  0.17845  1.0000
  O   O128      1.0  0.30877  0.25000  0.42845  1.0000
  O   O129      1.0  0.10723  0.28703  0.47805  1.0000
  O   O130      1.0  0.05943  0.12037  0.22805  1.0000
  O   O131      1.0  0.10723  0.21297  0.47805  1.0000
  O   O132      1.0  0.05943  0.04630  0.22805  1.0000
  O   O133      1.0  0.22610  0.04630  0.02195  1.0000
  O   O134      1.0  0.27390  0.21297  0.27195  1.0000
  O   O135      1.0  0.22610  0.12037  0.02195  1.0000
  O   O136      1.0  0.08033  0.28607  0.39950  1.0000
  O   O137      1.0  0.08633  0.11940  0.14950  1.0000
  O   O138      1.0  0.08033  0.21393  0.39950  1.0000
  O   O139      1.0  0.08633  0.04727  0.14950  1.0000
  O   O140      1.0  0.25300  0.04727  0.10050  1.0000
  O   O141      1.0  0.24700  0.21393  0.35050  1.0000
  O   O142      1.0  0.25300  0.11940  0.10050  1.0000
  O   O143      1.0  0.24700  0.28607  0.35050  1.0000
  O   O144      1.0  0.09810  0.25000  0.02895  1.0000
  O   O145      1.0  0.06857  0.08333  0.27895  1.0000
  O   O146      1.0  0.23523  0.08333  0.47105  1.0000
  O   O147      1.0  0.26477  0.25000  0.22105  1.0000
  O   O148      1.0  0.06587  0.27710  0.00015  1.0000
  O   O149      1.0  0.10080  0.11043  0.25015  1.0000
  O   O150      1.0  0.06587  0.22290  0.00015  1.0000
  O   O151      1.0  0.10080  0.05623  0.25015  1.0000
  O   O152      1.0  0.26747  0.05623  0.49985  1.0000
  O   O153      1.0  0.23253  0.22290  0.24985  1.0000
  O   O154      1.0  0.26747  0.11043  0.49985  1.0000
  O   O155      1.0  0.23253  0.27710  0.24985  1.0000
  O   O156      1.0  0.03160  0.25000  0.01025  1.0000
  O   O157      1.0  0.13507  0.08333  0.26025  1.0000
  O   O158      1.0  0.30173  0.08333  0.48975  1.0000
  O   O159      1.0  0.19827  0.25000  0.23975  1.0000
  O   O160      1.0  0.02697  0.28900  0.46375  1.0000
  O   O161      1.0  0.13970  0.12233  0.21375  1.0000
  O   O162      1.0  0.02697  0.21100  0.46375  1.0000
  O   O163      1.0  0.13970  0.04433  0.21375  1.0000
  O   O164      1.0  0.30637  0.04433  0.03625  1.0000
  O   O165      1.0  0.19363  0.21100  0.28625  1.0000
  O   O166      1.0  0.30637  0.12233  0.03625  1.0000
  O   O167      1.0  0.19363  0.28900  0.28625  1.0000
  O   O168      1.0  0.03923  0.27900  0.37030  1.0000
  O   O169      1.0  0.12743  0.11233  0.12030  1.0000
  O   O170      1.0  0.03923  0.22100  0.37030  1.0000
  O   O171      1.0  0.12743  0.05433  0.12030  1.0000
  O   O172      1.0  0.29410  0.05433  0.12970  1.0000
  O   O173      1.0  0.20590  0.22100  0.37970  1.0000
  O   O174      1.0  0.29410  0.11233  0.12970  1.0000
  O   O175      1.0  0.20590  0.27900  0.37970  1.0000
  O   O176      1.0  0.07053  0.25000  0.34565  1.0000
  O   O177      1.0  0.09613  0.08333  0.09565  1.0000
  O   O178      1.0  0.26280  0.08333  0.15435  1.0000
  O   O179      1.0  0.23720  0.25000  0.40435  1.0000
  Si  Si1       1.0  0.14047  0.02370  0.34490  1.0000
  Si  Si2       1.0  0.02620  0.19037  0.09490  1.0000
  Si  Si3       1.0  0.14047  0.14297  0.34490  1.0000
  Si  Si4       1.0  0.02620  0.30963  0.09490  1.0000
  Si  Si5       1.0  0.19287  0.30963  0.15510  1.0000
  Si  Si6       1.0  0.30713  0.14297  0.40510  1.0000
  Si  Si7       1.0  0.19287  0.19037  0.15510  1.0000
  Si  Si8       1.0  0.30713  0.02370  0.40510  1.0000
  Si  Si9       1.0  0.10863  0.01120  0.42500  1.0000
  Si  Si10      1.0  0.05803  0.17787  0.17500  1.0000
  Si  Si11      1.0  0.10863  0.15547  0.42500  1.0000
  Si  Si12      1.0  0.05803  0.32213  0.17500  1.0000
  Si  Si13      1.0  0.27530  0.15547  0.32500  1.0000
  Si  Si14      1.0  0.22470  0.17787  0.07500  1.0000
  Si  Si15      1.0  0.27530  0.01120  0.32500  1.0000
  Si  Si16      1.0  0.09307  0.01787  0.03275  1.0000
  Si  Si17      1.0  0.07360  0.18453  0.28275  1.0000
  Si  Si18      1.0  0.09307  0.14880  0.03275  1.0000
  Si  Si19      1.0  0.07360  0.31547  0.28275  1.0000
  Si  Si20      1.0  0.25973  0.14880  0.21725  1.0000
  Si  Si21      1.0  0.24027  0.18453  0.46725  1.0000
  Si  Si22      1.0  0.25973  0.01787  0.21725  1.0000
  Si  Si23      1.0  0.04153  0.01713  0.02405  1.0000
  Si  Si24      1.0  0.12513  0.18380  0.27405  1.0000
  Si  Si25      1.0  0.04153  0.14953  0.02405  1.0000
  Si  Si26      1.0  0.12513  0.31620  0.27405  1.0000
  Si  Si27      1.0  0.20820  0.14953  0.22595  1.0000
  Si  Si28      1.0  0.29180  0.18380  0.47595  1.0000
  Si  Si29      1.0  0.20820  0.01713  0.22595  1.0000
  Si  Si30      1.0  0.02403  0.01200  0.41165  1.0000
  Si  Si31      1.0  0.14263  0.17867  0.16165  1.0000
  Si  Si32      1.0  0.02403  0.15467  0.41165  1.0000
  Si  Si33      1.0  0.14263  0.32133  0.16165  1.0000
  Si  Si34      1.0  0.19070  0.15467  0.33835  1.0000
  Si  Si35      1.0  0.30930  0.17867  0.08835  1.0000
  Si  Si36      1.0  0.19070  0.01200  0.33835  1.0000
  Si  Si37      1.0  0.06780  0.02290  0.35985  1.0000
  Si  Si38      1.0  0.09887  0.18957  0.10985  1.0000
  Si  Si39      1.0  0.06780  0.14377  0.35985  1.0000
  Si  Si40      1.0  0.09887  0.31043  0.10985  1.0000
  Si  Si41      1.0  0.23447  0.14377  0.39015  1.0000
  Si  Si42      1.0  0.26553  0.18957  0.14015  1.0000
  Si  Si43      1.0  0.23447  0.02290  0.39015  1.0000
  Si  Si44      1.0  0.13983  0.27580  0.34025  1.0000
  Si  Si45      1.0  0.02683  0.10913  0.09025  1.0000
  Si  Si46      1.0  0.13983  0.22420  0.34025  1.0000
  Si  Si47      1.0  0.02683  0.05753  0.09025  1.0000
  Si  Si48      1.0  0.19350  0.05753  0.15975  1.0000
  Si  Si49      1.0  0.30650  0.22420  0.40975  1.0000
  Si  Si50      1.0  0.19350  0.10913  0.15975  1.0000
  Si  Si51      1.0  0.10507  0.29217  0.41805  1.0000
  Si  Si52      1.0  0.06160  0.12550  0.16805  1.0000
  Si  Si53      1.0  0.10507  0.20783  0.41805  1.0000
  Si  Si54      1.0  0.06160  0.04117  0.16805  1.0000
  Si  Si55      1.0  0.22827  0.04117  0.08195  1.0000
  Si  Si56      1.0  0.27173  0.20783  0.33195  1.0000
  Si  Si57      1.0  0.22827  0.12550  0.08195  1.0000
  Si  Si58      1.0  0.09110  0.27593  0.02010  1.0000
  Si  Si59      1.0  0.07557  0.10927  0.27010  1.0000
  Si  Si60      1.0  0.09110  0.22407  0.02010  1.0000
  Si  Si61      1.0  0.07557  0.05740  0.27010  1.0000
  Si  Si62      1.0  0.24223  0.05740  0.47990  1.0000
  Si  Si63      1.0  0.25777  0.22407  0.22990  1.0000
  Si  Si64      1.0  0.24223  0.10927  0.47990  1.0000
  Si  Si65      1.0  0.03950  0.27597  0.00915  1.0000
  Si  Si66      1.0  0.12717  0.10930  0.25915  1.0000
  Si  Si67      1.0  0.03950  0.22403  0.00915  1.0000
  Si  Si68      1.0  0.12717  0.05737  0.25915  1.0000
  Si  Si69      1.0  0.29383  0.05737  0.49085  1.0000
  Si  Si70      1.0  0.20617  0.22403  0.24085  1.0000
  Si  Si71      1.0  0.29383  0.10930  0.49085  1.0000
  Si  Si72      1.0  0.20617  0.27597  0.24085  1.0000
  Si  Si73      1.0  0.02190  0.29313  0.40435  1.0000
  Si  Si74      1.0  0.14477  0.12647  0.15435  1.0000
  Si  Si75      1.0  0.02190  0.20687  0.40435  1.0000
  Si  Si76      1.0  0.14477  0.04020  0.15435  1.0000
  Si  Si77      1.0  0.31143  0.04020  0.09565  1.0000
  Si  Si78      1.0  0.18857  0.20687  0.34565  1.0000
  Si  Si79      1.0  0.31143  0.12647  0.09565  1.0000
  Si  Si80      1.0  0.18857  0.29313  0.34565  1.0000
  Si  Si81      1.0  0.06490  0.27627  0.35460  1.0000
  Si  Si82      1.0  0.10177  0.10960  0.10460  1.0000
  Si  Si83      1.0  0.06490  0.22373  0.35460  1.0000
  Si  Si84      1.0  0.10177  0.05707  0.10460  1.0000
  Si  Si85      1.0  0.26843  0.05707  0.14540  1.0000
  Si  Si86      1.0  0.23157  0.22373  0.39540  1.0000
  Si  Si87      1.0  0.26843  0.10960  0.14540  1.0000
  Si  Si88      1.0  0.23157  0.27627  0.39540  1.0000
  O   O180      1.0  0.16707  0.02330  0.85090  1.0000
  O   O181      1.0  0.33293  0.18997  0.60090  1.0000
  O   O182      1.0  0.16707  0.14337  0.85090  1.0000
  O   O183      1.0  0.16627  0.31003  0.64910  1.0000
  O   O184      1.0  0.00040  0.14337  0.89910  1.0000
  O   O185      1.0  0.16627  0.18997  0.64910  1.0000
  O   O186      1.0  0.00040  0.02330  0.89910  1.0000
  O   O187      1.0  0.12917  0.02477  0.90040  1.0000
  O   O188      1.0  0.03750  0.19143  0.65040  1.0000
  O   O189      1.0  0.12917  0.14190  0.90040  1.0000
  O   O190      1.0  0.03750  0.30857  0.65040  1.0000
  O   O191      1.0  0.20417  0.30857  0.59960  1.0000
  O   O192      1.0  0.29583  0.14190  0.84960  1.0000
  O   O193      1.0  0.20417  0.19143  0.59960  1.0000
  O   O194      1.0  0.29583  0.02477  0.84960  1.0000
  O   O195      1.0  0.13317  0.04553  0.81255  1.0000
  O   O196      1.0  0.03350  0.21220  0.56255  1.0000
  O   O197      1.0  0.13317  0.12113  0.81255  1.0000
  O   O198      1.0  0.03350  0.28780  0.56255  1.0000
  O   O199      1.0  0.20017  0.28780  0.68745  1.0000
  O   O200      1.0  0.29983  0.12113  0.93745  1.0000
  O   O201      1.0  0.20017  0.21220  0.68745  1.0000
  O   O202      1.0  0.29983  0.04553  0.93745  1.0000
  O   O203      1.0  0.13240  0.00113  0.81630  1.0000
  O   O204      1.0  0.03427  0.16780  0.56630  1.0000
  O   O205      1.0  0.13240  0.16553  0.81630  1.0000
  O   O206      1.0  0.03427  0.33220  0.56630  1.0000
  O   O207      1.0  0.20093  0.33220  0.68370  1.0000
  O   O208      1.0  0.29907  0.16553  0.93370  1.0000
  O   O209      1.0  0.20093  0.16780  0.68370  1.0000
  O   O210      1.0  0.29907  0.00113  0.93370  1.0000
  O   O211      1.0  0.10967  0.01283  0.98610  1.0000
  O   O212      1.0  0.05700  0.17950  0.73610  1.0000
  O   O213      1.0  0.10967  0.15383  0.98610  1.0000
  O   O214      1.0  0.05700  0.32050  0.73610  1.0000
  O   O215      1.0  0.27633  0.15383  0.76390  1.0000
  O   O216      1.0  0.22367  0.17950  0.51390  1.0000
  O   O217      1.0  0.27633  0.01283  0.76390  1.0000
  O   O218      1.0  0.10990  0.31850  0.90775  1.0000
  O   O219      1.0  0.05677  0.15183  0.65775  1.0000
  O   O220      1.0  0.10990  0.18150  0.90775  1.0000
  O   O221      1.0  0.05677  0.01483  0.65775  1.0000
  O   O222      1.0  0.22343  0.01483  0.59225  1.0000
  O   O223      1.0  0.27657  0.18150  0.84225  1.0000
  O   O224      1.0  0.22343  0.15183  0.59225  1.0000
  O   O225      1.0  0.08570  0.02210  0.90530  1.0000
  O   O226      1.0  0.08097  0.18877  0.65530  1.0000
  O   O227      1.0  0.08570  0.14457  0.90530  1.0000
  O   O228      1.0  0.08097  0.31123  0.65530  1.0000
  O   O229      1.0  0.25237  0.14457  0.84470  1.0000
  O   O230      1.0  0.24763  0.18877  0.59470  1.0000
  O   O231      1.0  0.25237  0.02210  0.84470  1.0000
  O   O232      1.0  0.09700  0.04320  0.55300  1.0000
  O   O233      1.0  0.06967  0.20987  0.80300  1.0000
  O   O234      1.0  0.09700  0.12347  0.55300  1.0000
  O   O235      1.0  0.06967  0.29013  0.80300  1.0000
  O   O236      1.0  0.23633  0.29013  0.94700  1.0000
  O   O237      1.0  0.26367  0.12347  0.69700  1.0000
  O   O238      1.0  0.23633  0.20987  0.94700  1.0000
  O   O239      1.0  0.26367  0.04320  0.69700  1.0000
  O   O240      1.0  0.06780  0.01517  0.51375  1.0000
  O   O241      1.0  0.09887  0.18183  0.76375  1.0000
  O   O242      1.0  0.06780  0.15150  0.51375  1.0000
  O   O243      1.0  0.09887  0.31817  0.76375  1.0000
  O   O244      1.0  0.23447  0.15150  0.73625  1.0000
  O   O245      1.0  0.26553  0.18183  0.98625  1.0000
  O   O246      1.0  0.23447  0.01517  0.73625  1.0000
  O   O247      1.0  0.09787  0.00033  0.57820  1.0000
  O   O248      1.0  0.06880  0.16700  0.82820  1.0000
  O   O249      1.0  0.09787  0.16633  0.57820  1.0000
  O   O250      1.0  0.06880  0.33300  0.82820  1.0000
  O   O251      1.0  0.26453  0.16633  0.67180  1.0000
  O   O252      1.0  0.23547  0.16700  0.92180  1.0000
  O   O253      1.0  0.26453  0.00033  0.67180  1.0000
  O   O254      1.0  0.03583  0.04217  0.54415  1.0000
  O   O255      1.0  0.13083  0.20883  0.79415  1.0000
  O   O256      1.0  0.03583  0.12450  0.54415  1.0000
  O   O257      1.0  0.13083  0.29117  0.79415  1.0000
  O   O258      1.0  0.20250  0.12450  0.70585  1.0000
  O   O259      1.0  0.29750  0.20883  0.95585  1.0000
  O   O260      1.0  0.20250  0.04217  0.70585  1.0000
  O   O261      1.0  0.02820  0.01233  0.97215  1.0000
  O   O262      1.0  0.13847  0.17900  0.72215  1.0000
  O   O263      1.0  0.02820  0.15433  0.97215  1.0000
  O   O264      1.0  0.13847  0.32100  0.72215  1.0000
  O   O265      1.0  0.19487  0.15433  0.77785  1.0000
  O   O266      1.0  0.30513  0.17900  0.52785  1.0000
  O   O267      1.0  0.19487  0.01233  0.77785  1.0000
  O   O268      1.0  0.04337  0.02603  0.88350  1.0000
  O   O269      1.0  0.12330  0.19270  0.63350  1.0000
  O   O270      1.0  0.04337  0.14063  0.88350  1.0000
  O   O271      1.0  0.12330  0.30730  0.63350  1.0000
  O   O272      1.0  0.21003  0.14063  0.86650  1.0000
  O   O273      1.0  0.28997  0.19270  0.61650  1.0000
  O   O274      1.0  0.21003  0.02603  0.86650  1.0000
  O   O275      1.0  0.02427  0.31963  0.89160  1.0000
  O   O276      1.0  0.14240  0.15297  0.64160  1.0000
  O   O277      1.0  0.02427  0.18037  0.89160  1.0000
  O   O278      1.0  0.14240  0.01370  0.64160  1.0000
  O   O279      1.0  0.30907  0.01370  0.60840  1.0000
  O   O280      1.0  0.19093  0.18037  0.85840  1.0000
  O   O281      1.0  0.30907  0.15297  0.60840  1.0000
  O   O282      1.0  0.19093  0.31963  0.85840  1.0000
  O   O283      1.0  0.07337  0.04377  0.82280  1.0000
  O   O284      1.0  0.09330  0.21043  0.57280  1.0000
  O   O285      1.0  0.07337  0.12290  0.82280  1.0000
  O   O286      1.0  0.09330  0.28957  0.57280  1.0000
  O   O287      1.0  0.24003  0.12290  0.92720  1.0000
  O   O288      1.0  0.25997  0.21043  0.67720  1.0000
  O   O289      1.0  0.24003  0.04377  0.92720  1.0000
  O   O290      1.0  0.16370  0.28493  0.85845  1.0000
  O   O291      1.0  0.00297  0.11827  0.60845  1.0000
  O   O292      1.0  0.16370  0.21507  0.85845  1.0000
  O   O293      1.0  0.00297  0.04840  0.60845  1.0000
  O   O294      1.0  0.16963  0.04840  0.64155  1.0000
  O   O295      1.0  0.33037  0.21507  0.89155  1.0000
  O   O296      1.0  0.16963  0.11827  0.64155  1.0000
  O   O297      1.0  0.12270  0.27703  0.88715  1.0000
  O   O298      1.0  0.04397  0.11037  0.63715  1.0000
  O   O299      1.0  0.12270  0.22297  0.88715  1.0000
  O   O300      1.0  0.04397  0.05630  0.63715  1.0000
  O   O301      1.0  0.21063  0.05630  0.61285  1.0000
  O   O302      1.0  0.28937  0.22297  0.86285  1.0000
  O   O303      1.0  0.21063  0.11037  0.61285  1.0000
  O   O304      1.0  0.14210  0.25000  0.82155  1.0000
  O   O305      1.0  0.02457  0.08333  0.57155  1.0000
  O   O306      1.0  0.19123  0.08333  0.67845  1.0000
  O   O307      1.0  0.30877  0.25000  0.92845  1.0000
  O   O308      1.0  0.10723  0.28703  0.97805  1.0000
  O   O309      1.0  0.05943  0.12037  0.72805  1.0000
  O   O310      1.0  0.10723  0.21297  0.97805  1.0000
  O   O311      1.0  0.05943  0.04630  0.72805  1.0000
  O   O312      1.0  0.22610  0.04630  0.52195  1.0000
  O   O313      1.0  0.27390  0.21297  0.77195  1.0000
  O   O314      1.0  0.22610  0.12037  0.52195  1.0000
  O   O315      1.0  0.08033  0.28607  0.89950  1.0000
  O   O316      1.0  0.08633  0.11940  0.64950  1.0000
  O   O317      1.0  0.08033  0.21393  0.89950  1.0000
  O   O318      1.0  0.08633  0.04727  0.64950  1.0000
  O   O319      1.0  0.25300  0.04727  0.60050  1.0000
  O   O320      1.0  0.24700  0.21393  0.85050  1.0000
  O   O321      1.0  0.25300  0.11940  0.60050  1.0000
  O   O322      1.0  0.24700  0.28607  0.85050  1.0000
  O   O323      1.0  0.09810  0.25000  0.52895  1.0000
  O   O324      1.0  0.06857  0.08333  0.77895  1.0000
  O   O325      1.0  0.23523  0.08333  0.97105  1.0000
  O   O326      1.0  0.26477  0.25000  0.72105  1.0000
  O   O327      1.0  0.06587  0.27710  0.50015  1.0000
  O   O328      1.0  0.10080  0.11043  0.75015  1.0000
  O   O329      1.0  0.06587  0.22290  0.50015  1.0000
  O   O330      1.0  0.10080  0.05623  0.75015  1.0000
  O   O331      1.0  0.26747  0.05623  0.99985  1.0000
  O   O332      1.0  0.23253  0.22290  0.74985  1.0000
  O   O333      1.0  0.26747  0.11043  0.99985  1.0000
  O   O334      1.0  0.23253  0.27710  0.74985  1.0000
  O   O335      1.0  0.03160  0.25000  0.51025  1.0000
  O   O336      1.0  0.13507  0.08333  0.76025  1.0000
  O   O337      1.0  0.30173  0.08333  0.98975  1.0000
  O   O338      1.0  0.19827  0.25000  0.73975  1.0000
  O   O339      1.0  0.02697  0.28900  0.96375  1.0000
  O   O340      1.0  0.13970  0.12233  0.71375  1.0000
  O   O341      1.0  0.02697  0.21100  0.96375  1.0000
  O   O342      1.0  0.13970  0.04433  0.71375  1.0000
  O   O343      1.0  0.30637  0.04433  0.53625  1.0000
  O   O344      1.0  0.19363  0.21100  0.78625  1.0000
  O   O345      1.0  0.30637  0.12233  0.53625  1.0000
  O   O346      1.0  0.19363  0.28900  0.78625  1.0000
  O   O347      1.0  0.03923  0.27900  0.87030  1.0000
  O   O348      1.0  0.12743  0.11233  0.62030  1.0000
  O   O349      1.0  0.03923  0.22100  0.87030  1.0000
  O   O350      1.0  0.12743  0.05433  0.62030  1.0000
  O   O351      1.0  0.29410  0.05433  0.62970  1.0000
  O   O352      1.0  0.20590  0.22100  0.87970  1.0000
  O   O353      1.0  0.29410  0.11233  0.62970  1.0000
  O   O354      1.0  0.20590  0.27900  0.87970  1.0000
  O   O355      1.0  0.07053  0.25000  0.84565  1.0000
  O   O356      1.0  0.09613  0.08333  0.59565  1.0000
  O   O357      1.0  0.26280  0.08333  0.65435  1.0000
  O   O358      1.0  0.23720  0.25000  0.90435  1.0000
  Si  Si89      1.0  0.14047  0.02370  0.84490  1.0000
  Si  Si90      1.0  0.02620  0.19037  0.59490  1.0000
  Si  Si91      1.0  0.14047  0.14297  0.84490  1.0000
  Si  Si92      1.0  0.02620  0.30963  0.59490  1.0000
  Si  Si93      1.0  0.19287  0.30963  0.65510  1.0000
  Si  Si94      1.0  0.30713  0.14297  0.90510  1.0000
  Si  Si95      1.0  0.19287  0.19037  0.65510  1.0000
  Si  Si96      1.0  0.30713  0.02370  0.90510  1.0000
  Si  Si97      1.0  0.10863  0.01120  0.92500  1.0000
  Si  Si98      1.0  0.05803  0.17787  0.67500  1.0000
  Si  Si99      1.0  0.10863  0.15547  0.92500  1.0000
  Si  Si100     1.0  0.05803  0.32213  0.67500  1.0000
  Si  Si101     1.0  0.27530  0.15547  0.82500  1.0000
  Si  Si102     1.0  0.22470  0.17787  0.57500  1.0000
  Si  Si103     1.0  0.27530  0.01120  0.82500  1.0000
  Si  Si104     1.0  0.09307  0.01787  0.53275  1.0000
  Si  Si105     1.0  0.07360  0.18453  0.78275  1.0000
  Si  Si106     1.0  0.09307  0.14880  0.53275  1.0000
  Si  Si107     1.0  0.07360  0.31547  0.78275  1.0000
  Si  Si108     1.0  0.25973  0.14880  0.71725  1.0000
  Si  Si109     1.0  0.24027  0.18453  0.96725  1.0000
  Si  Si110     1.0  0.25973  0.01787  0.71725  1.0000
  Si  Si111     1.0  0.04153  0.01713  0.52405  1.0000
  Si  Si112     1.0  0.12513  0.18380  0.77405  1.0000
  Si  Si113     1.0  0.04153  0.14953  0.52405  1.0000
  Si  Si114     1.0  0.12513  0.31620  0.77405  1.0000
  Si  Si115     1.0  0.20820  0.14953  0.72595  1.0000
  Si  Si116     1.0  0.29180  0.18380  0.97595  1.0000
  Si  Si117     1.0  0.20820  0.01713  0.72595  1.0000
  Si  Si118     1.0  0.02403  0.01200  0.91165  1.0000
  Si  Si119     1.0  0.14263  0.17867  0.66165  1.0000
  Si  Si120     1.0  0.02403  0.15467  0.91165  1.0000
  Si  Si121     1.0  0.14263  0.32133  0.66165  1.0000
  Si  Si122     1.0  0.19070  0.15467  0.83835  1.0000
  Si  Si123     1.0  0.30930  0.17867  0.58835  1.0000
  Si  Si124     1.0  0.19070  0.01200  0.83835  1.0000
  Si  Si125     1.0  0.06780  0.02290  0.85985  1.0000
  Si  Si126     1.0  0.09887  0.18957  0.60985  1.0000
  Si  Si127     1.0  0.06780  0.14377  0.85985  1.0000
  Si  Si128     1.0  0.09887  0.31043  0.60985  1.0000
  Si  Si129     1.0  0.23447  0.14377  0.89015  1.0000
  Si  Si130     1.0  0.26553  0.18957  0.64015  1.0000
  Si  Si131     1.0  0.23447  0.02290  0.89015  1.0000
  Si  Si132     1.0  0.13983  0.27580  0.84025  1.0000
  Si  Si133     1.0  0.02683  0.10913  0.59025  1.0000
  Si  Si134     1.0  0.13983  0.22420  0.84025  1.0000
  Si  Si135     1.0  0.02683  0.05753  0.59025  1.0000
  Si  Si136     1.0  0.19350  0.05753  0.65975  1.0000
  Si  Si137     1.0  0.30650  0.22420  0.90975  1.0000
  Si  Si138     1.0  0.19350  0.10913  0.65975  1.0000
  Si  Si139     1.0  0.10507  0.29217  0.91805  1.0000
  Si  Si140     1.0  0.06160  0.12550  0.66805  1.0000
  Si  Si141     1.0  0.10507  0.20783  0.91805  1.0000
  Si  Si142     1.0  0.06160  0.04117  0.66805  1.0000
  Si  Si143     1.0  0.22827  0.04117  0.58195  1.0000
  Si  Si144     1.0  0.27173  0.20783  0.83195  1.0000
  Si  Si145     1.0  0.22827  0.12550  0.58195  1.0000
  Si  Si146     1.0  0.09110  0.27593  0.52010  1.0000
  Si  Si147     1.0  0.07557  0.10927  0.77010  1.0000
  Si  Si148     1.0  0.09110  0.22407  0.52010  1.0000
  Si  Si149     1.0  0.07557  0.05740  0.77010  1.0000
  Si  Si150     1.0  0.24223  0.05740  0.97990  1.0000
  Si  Si151     1.0  0.25777  0.22407  0.72990  1.0000
  Si  Si152     1.0  0.24223  0.10927  0.97990  1.0000
  Si  Si153     1.0  0.03950  0.27597  0.50915  1.0000
  Si  Si154     1.0  0.12717  0.10930  0.75915  1.0000
  Si  Si155     1.0  0.03950  0.22403  0.50915  1.0000
  Si  Si156     1.0  0.12717  0.05737  0.75915  1.0000
  Si  Si157     1.0  0.29383  0.05737  0.99085  1.0000
  Si  Si158     1.0  0.20617  0.22403  0.74085  1.0000
  Si  Si159     1.0  0.29383  0.10930  0.99085  1.0000
  Si  Si160     1.0  0.20617  0.27597  0.74085  1.0000
  Si  Si161     1.0  0.02190  0.29313  0.90435  1.0000
  Si  Si162     1.0  0.14477  0.12647  0.65435  1.0000
  Si  Si163     1.0  0.02190  0.20687  0.90435  1.0000
  Si  Si164     1.0  0.14477  0.04020  0.65435  1.0000
  Si  Si165     1.0  0.31143  0.04020  0.59565  1.0000
  Si  Si166     1.0  0.18857  0.20687  0.84565  1.0000
  Si  Si167     1.0  0.31143  0.12647  0.59565  1.0000
  Si  Si168     1.0  0.18857  0.29313  0.84565  1.0000
  Si  Si169     1.0  0.06490  0.27627  0.85460  1.0000
  Si  Si170     1.0  0.10177  0.10960  0.60460  1.0000
  Si  Si171     1.0  0.06490  0.22373  0.85460  1.0000
  Si  Si172     1.0  0.10177  0.05707  0.60460  1.0000
  Si  Si173     1.0  0.26843  0.05707  0.64540  1.0000
  Si  Si174     1.0  0.23157  0.22373  0.89540  1.0000
  Si  Si175     1.0  0.26843  0.10960  0.64540  1.0000
  Si  Si176     1.0  0.23157  0.27627  0.89540  1.0000
  O   O359      1.0  0.16707  0.35663  0.35090  1.0000
  O   O360      1.0  0.16707  0.47670  0.35090  1.0000
  O   O361      1.0  0.16627  0.64337  0.14910  1.0000
  O   O362      1.0  0.00040  0.47670  0.39910  1.0000
  O   O363      1.0  0.16627  0.52330  0.14910  1.0000
  O   O364      1.0  0.00040  0.35663  0.39910  1.0000
  O   O365      1.0  0.12917  0.35810  0.40040  1.0000
  O   O366      1.0  0.03750  0.52477  0.15040  1.0000
  O   O367      1.0  0.12917  0.47523  0.40040  1.0000
  O   O368      1.0  0.03750  0.64190  0.15040  1.0000
  O   O369      1.0  0.20417  0.64190  0.09960  1.0000
  O   O370      1.0  0.13317  0.37887  0.31255  1.0000
  O   O371      1.0  0.03350  0.54553  0.06255  1.0000
  O   O372      1.0  0.13317  0.45447  0.31255  1.0000
  O   O373      1.0  0.03350  0.62113  0.06255  1.0000
  O   O374      1.0  0.20017  0.62113  0.18745  1.0000
  O   O375      1.0  0.13240  0.33447  0.31630  1.0000
  O   O376      1.0  0.03427  0.50113  0.06630  1.0000
  O   O377      1.0  0.13240  0.49887  0.31630  1.0000
  O   O378      1.0  0.03427  0.66553  0.06630  1.0000
  O   O379      1.0  0.20093  0.66553  0.18370  1.0000
  O   O380      1.0  0.10967  0.34617  0.48610  1.0000
  O   O381      1.0  0.05700  0.51283  0.23610  1.0000
  O   O382      1.0  0.10967  0.48717  0.48610  1.0000
  O   O383      1.0  0.05700  0.65383  0.23610  1.0000
  O   O384      1.0  0.10990  0.65183  0.40775  1.0000
  O   O385      1.0  0.05677  0.48517  0.15775  1.0000
  O   O386      1.0  0.10990  0.51483  0.40775  1.0000
  O   O387      1.0  0.05677  0.34817  0.15775  1.0000
  O   O388      1.0  0.08570  0.35543  0.40530  1.0000
  O   O389      1.0  0.08097  0.52210  0.15530  1.0000
  O   O390      1.0  0.08570  0.47790  0.40530  1.0000
  O   O391      1.0  0.08097  0.64457  0.15530  1.0000
  O   O392      1.0  0.09700  0.37653  0.05300  1.0000
  O   O393      1.0  0.06967  0.54320  0.30300  1.0000
  O   O394      1.0  0.09700  0.45680  0.05300  1.0000
  O   O395      1.0  0.06967  0.62347  0.30300  1.0000
  O   O396      1.0  0.06780  0.34850  0.01375  1.0000
  O   O397      1.0  0.09887  0.51517  0.26375  1.0000
  O   O398      1.0  0.06780  0.48483  0.01375  1.0000
  O   O399      1.0  0.09887  0.65150  0.26375  1.0000
  O   O400      1.0  0.09787  0.33367  0.07820  1.0000
  O   O401      1.0  0.06880  0.50033  0.32820  1.0000
  O   O402      1.0  0.09787  0.49967  0.07820  1.0000
  O   O403      1.0  0.06880  0.66633  0.32820  1.0000
  O   O404      1.0  0.03583  0.37550  0.04415  1.0000
  O   O405      1.0  0.13083  0.54217  0.29415  1.0000
  O   O406      1.0  0.03583  0.45783  0.04415  1.0000
  O   O407      1.0  0.13083  0.62450  0.29415  1.0000
  O   O408      1.0  0.02820  0.34567  0.47215  1.0000
  O   O409      1.0  0.13847  0.51233  0.22215  1.0000
  O   O410      1.0  0.02820  0.48767  0.47215  1.0000
  O   O411      1.0  0.13847  0.65433  0.22215  1.0000
  O   O412      1.0  0.19487  0.34567  0.27785  1.0000
  O   O413      1.0  0.04337  0.35937  0.38350  1.0000
  O   O414      1.0  0.12330  0.52603  0.13350  1.0000
  O   O415      1.0  0.04337  0.47397  0.38350  1.0000
  O   O416      1.0  0.12330  0.64063  0.13350  1.0000
  O   O417      1.0  0.21003  0.35937  0.36650  1.0000
  O   O418      1.0  0.02427  0.65297  0.39160  1.0000
  O   O419      1.0  0.14240  0.48630  0.14160  1.0000
  O   O420      1.0  0.02427  0.51370  0.39160  1.0000
  O   O421      1.0  0.14240  0.34703  0.14160  1.0000
  O   O422      1.0  0.19093  0.65297  0.35840  1.0000
  O   O423      1.0  0.07337  0.37710  0.32280  1.0000
  O   O424      1.0  0.09330  0.54377  0.07280  1.0000
  O   O425      1.0  0.07337  0.45623  0.32280  1.0000
  O   O426      1.0  0.09330  0.62290  0.07280  1.0000
  O   O427      1.0  0.16370  0.61827  0.35845  1.0000
  O   O428      1.0  0.00297  0.45160  0.10845  1.0000
  O   O429      1.0  0.16370  0.54840  0.35845  1.0000
  O   O430      1.0  0.00297  0.38173  0.10845  1.0000
  O   O431      1.0  0.16963  0.38173  0.14155  1.0000
  O   O432      1.0  0.16963  0.45160  0.14155  1.0000
  O   O433      1.0  0.12270  0.61037  0.38715  1.0000
  O   O434      1.0  0.04397  0.44370  0.13715  1.0000
  O   O435      1.0  0.12270  0.55630  0.38715  1.0000
  O   O436      1.0  0.04397  0.38963  0.13715  1.0000
  O   O437      1.0  0.14210  0.58333  0.32155  1.0000
  O   O438      1.0  0.02457  0.41667  0.07155  1.0000
  O   O439      1.0  0.10723  0.62037  0.47805  1.0000
  O   O440      1.0  0.05943  0.45370  0.22805  1.0000
  O   O441      1.0  0.10723  0.54630  0.47805  1.0000
  O   O442      1.0  0.05943  0.37963  0.22805  1.0000
  O   O443      1.0  0.08033  0.61940  0.39950  1.0000
  O   O444      1.0  0.08633  0.45273  0.14950  1.0000
  O   O445      1.0  0.08033  0.54727  0.39950  1.0000
  O   O446      1.0  0.08633  0.38060  0.14950  1.0000
  O   O447      1.0  0.09810  0.58333  0.02895  1.0000
  O   O448      1.0  0.06857  0.41667  0.27895  1.0000
  O   O449      1.0  0.06587  0.61043  0.00015  1.0000
  O   O450      1.0  0.10080  0.44377  0.25015  1.0000
  O   O451      1.0  0.06587  0.55623  0.00015  1.0000
  O   O452      1.0  0.10080  0.38957  0.25015  1.0000
  O   O453      1.0  0.03160  0.58333  0.01025  1.0000
  O   O454      1.0  0.13507  0.41667  0.26025  1.0000
  O   O455      1.0  0.02697  0.62233  0.46375  1.0000
  O   O456      1.0  0.13970  0.45567  0.21375  1.0000
  O   O457      1.0  0.02697  0.54433  0.46375  1.0000
  O   O458      1.0  0.13970  0.37767  0.21375  1.0000
  O   O459      1.0  0.19363  0.62233  0.28625  1.0000
  O   O460      1.0  0.03923  0.61233  0.37030  1.0000
  O   O461      1.0  0.12743  0.44567  0.12030  1.0000
  O   O462      1.0  0.03923  0.55433  0.37030  1.0000
  O   O463      1.0  0.12743  0.38767  0.12030  1.0000
  O   O464      1.0  0.20590  0.61233  0.37970  1.0000
  O   O465      1.0  0.07053  0.58333  0.34565  1.0000
  O   O466      1.0  0.09613  0.41667  0.09565  1.0000
  Si  Si177     1.0  0.14047  0.35703  0.34490  1.0000
  Si  Si178     1.0  0.02620  0.52370  0.09490  1.0000
  Si  Si179     1.0  0.14047  0.47630  0.34490  1.0000
  Si  Si180     1.0  0.02620  0.64297  0.09490  1.0000
  Si  Si181     1.0  0.19287  0.64297  0.15510  1.0000
  Si  Si182     1.0  0.10863  0.34453  0.42500  1.0000
  Si  Si183     1.0  0.05803  0.51120  0.17500  1.0000
  Si  Si184     1.0  0.10863  0.48880  0.42500  1.0000
  Si  Si185     1.0  0.05803  0.65547  0.17500  1.0000
  Si  Si186     1.0  0.09307  0.35120  0.03275  1.0000
  Si  Si187     1.0  0.07360  0.51787  0.28275  1.0000
  Si  Si188     1.0  0.09307  0.48213  0.03275  1.0000
  Si  Si189     1.0  0.07360  0.64880  0.28275  1.0000
  Si  Si190     1.0  0.04153  0.35047  0.02405  1.0000
  Si  Si191     1.0  0.12513  0.51713  0.27405  1.0000
  Si  Si192     1.0  0.04153  0.48287  0.02405  1.0000
  Si  Si193     1.0  0.12513  0.64953  0.27405  1.0000
  Si  Si194     1.0  0.02403  0.34533  0.41165  1.0000
  Si  Si195     1.0  0.14263  0.51200  0.16165  1.0000
  Si  Si196     1.0  0.02403  0.48800  0.41165  1.0000
  Si  Si197     1.0  0.14263  0.65467  0.16165  1.0000
  Si  Si198     1.0  0.19070  0.34533  0.33835  1.0000
  Si  Si199     1.0  0.06780  0.35623  0.35985  1.0000
  Si  Si200     1.0  0.09887  0.52290  0.10985  1.0000
  Si  Si201     1.0  0.06780  0.47710  0.35985  1.0000
  Si  Si202     1.0  0.09887  0.64377  0.10985  1.0000
  Si  Si203     1.0  0.13983  0.60913  0.34025  1.0000
  Si  Si204     1.0  0.02683  0.44247  0.09025  1.0000
  Si  Si205     1.0  0.13983  0.55753  0.34025  1.0000
  Si  Si206     1.0  0.02683  0.39087  0.09025  1.0000
  Si  Si207     1.0  0.10507  0.62550  0.41805  1.0000
  Si  Si208     1.0  0.06160  0.45883  0.16805  1.0000
  Si  Si209     1.0  0.10507  0.54117  0.41805  1.0000
  Si  Si210     1.0  0.06160  0.37450  0.16805  1.0000
  Si  Si211     1.0  0.09110  0.60927  0.02010  1.0000
  Si  Si212     1.0  0.07557  0.44260  0.27010  1.0000
  Si  Si213     1.0  0.09110  0.55740  0.02010  1.0000
  Si  Si214     1.0  0.07557  0.39073  0.27010  1.0000
  Si  Si215     1.0  0.03950  0.60930  0.00915  1.0000
  Si  Si216     1.0  0.12717  0.44263  0.25915  1.0000
  Si  Si217     1.0  0.03950  0.55737  0.00915  1.0000
  Si  Si218     1.0  0.12717  0.39070  0.25915  1.0000
  Si  Si219     1.0  0.02190  0.62647  0.40435  1.0000
  Si  Si220     1.0  0.14477  0.45980  0.15435  1.0000
  Si  Si221     1.0  0.02190  0.54020  0.40435  1.0000
  Si  Si222     1.0  0.14477  0.37353  0.15435  1.0000
  Si  Si223     1.0  0.18857  0.62647  0.34565  1.0000
  Si  Si224     1.0  0.06490  0.60960  0.35460  1.0000
  Si  Si225     1.0  0.10177  0.44293  0.10460  1.0000
  Si  Si226     1.0  0.06490  0.55707  0.35460  1.0000
  Si  Si227     1.0  0.10177  0.39040  0.10460  1.0000
  O   O467      1.0  0.16707  0.35663  0.85090  1.0000
  O   O468      1.0  0.16707  0.47670  0.85090  1.0000
  O   O469      1.0  0.16627  0.64337  0.64910  1.0000
  O   O470      1.0  0.00040  0.47670  0.89910  1.0000
  O   O471      1.0  0.16627  0.52330  0.64910  1.0000
  O   O472      1.0  0.00040  0.35663  0.89910  1.0000
  O   O473      1.0  0.12917  0.35810  0.90040  1.0000
  O   O474      1.0  0.03750  0.52477  0.65040  1.0000
  O   O475      1.0  0.12917  0.47523  0.90040  1.0000
  O   O476      1.0  0.03750  0.64190  0.65040  1.0000
  O   O477      1.0  0.20417  0.64190  0.59960  1.0000
  O   O478      1.0  0.13317  0.37887  0.81255  1.0000
  O   O479      1.0  0.03350  0.54553  0.56255  1.0000
  O   O480      1.0  0.13317  0.45447  0.81255  1.0000
  O   O481      1.0  0.03350  0.62113  0.56255  1.0000
  O   O482      1.0  0.20017  0.62113  0.68745  1.0000
  O   O483      1.0  0.13240  0.33447  0.81630  1.0000
  O   O484      1.0  0.03427  0.50113  0.56630  1.0000
  O   O485      1.0  0.13240  0.49887  0.81630  1.0000
  O   O486      1.0  0.03427  0.66553  0.56630  1.0000
  O   O487      1.0  0.20093  0.66553  0.68370  1.0000
  O   O488      1.0  0.10967  0.34617  0.98610  1.0000
  O   O489      1.0  0.05700  0.51283  0.73610  1.0000
  O   O490      1.0  0.10967  0.48717  0.98610  1.0000
  O   O491      1.0  0.05700  0.65383  0.73610  1.0000
  O   O492      1.0  0.10990  0.65183  0.90775  1.0000
  O   O493      1.0  0.05677  0.48517  0.65775  1.0000
  O   O494      1.0  0.10990  0.51483  0.90775  1.0000
  O   O495      1.0  0.05677  0.34817  0.65775  1.0000
  O   O496      1.0  0.08570  0.35543  0.90530  1.0000
  O   O497      1.0  0.08097  0.52210  0.65530  1.0000
  O   O498      1.0  0.08570  0.47790  0.90530  1.0000
  O   O499      1.0  0.08097  0.64457  0.65530  1.0000
  O   O500      1.0  0.09700  0.37653  0.55300  1.0000
  O   O501      1.0  0.06967  0.54320  0.80300  1.0000
  O   O502      1.0  0.09700  0.45680  0.55300  1.0000
  O   O503      1.0  0.06967  0.62347  0.80300  1.0000
  O   O504      1.0  0.06780  0.34850  0.51375  1.0000
  O   O505      1.0  0.09887  0.51517  0.76375  1.0000
  O   O506      1.0  0.06780  0.48483  0.51375  1.0000
  O   O507      1.0  0.09887  0.65150  0.76375  1.0000
  O   O508      1.0  0.09787  0.33367  0.57820  1.0000
  O   O509      1.0  0.06880  0.50033  0.82820  1.0000
  O   O510      1.0  0.09787  0.49967  0.57820  1.0000
  O   O511      1.0  0.06880  0.66633  0.82820  1.0000
  O   O512      1.0  0.03583  0.37550  0.54415  1.0000
  O   O513      1.0  0.13083  0.54217  0.79415  1.0000
  O   O514      1.0  0.03583  0.45783  0.54415  1.0000
  O   O515      1.0  0.13083  0.62450  0.79415  1.0000
  O   O516      1.0  0.02820  0.34567  0.97215  1.0000
  O   O517      1.0  0.13847  0.51233  0.72215  1.0000
  O   O518      1.0  0.02820  0.48767  0.97215  1.0000
  O   O519      1.0  0.13847  0.65433  0.72215  1.0000
  O   O520      1.0  0.19487  0.34567  0.77785  1.0000
  O   O521      1.0  0.04337  0.35937  0.88350  1.0000
  O   O522      1.0  0.12330  0.52603  0.63350  1.0000
  O   O523      1.0  0.04337  0.47397  0.88350  1.0000
  O   O524      1.0  0.12330  0.64063  0.63350  1.0000
  O   O525      1.0  0.21003  0.35937  0.86650  1.0000
  O   O526      1.0  0.02427  0.65297  0.89160  1.0000
  O   O527      1.0  0.14240  0.48630  0.64160  1.0000
  O   O528      1.0  0.02427  0.51370  0.89160  1.0000
  O   O529      1.0  0.14240  0.34703  0.64160  1.0000
  O   O530      1.0  0.19093  0.65297  0.85840  1.0000
  O   O531      1.0  0.07337  0.37710  0.82280  1.0000
  O   O532      1.0  0.09330  0.54377  0.57280  1.0000
  O   O533      1.0  0.07337  0.45623  0.82280  1.0000
  O   O534      1.0  0.09330  0.62290  0.57280  1.0000
  O   O535      1.0  0.16370  0.61827  0.85845  1.0000
  O   O536      1.0  0.00297  0.45160  0.60845  1.0000
  O   O537      1.0  0.16370  0.54840  0.85845  1.0000
  O   O538      1.0  0.00297  0.38173  0.60845  1.0000
  O   O539      1.0  0.16963  0.38173  0.64155  1.0000
  O   O540      1.0  0.16963  0.45160  0.64155  1.0000
  O   O541      1.0  0.12270  0.61037  0.88715  1.0000
  O   O542      1.0  0.04397  0.44370  0.63715  1.0000
  O   O543      1.0  0.12270  0.55630  0.88715  1.0000
  O   O544      1.0  0.04397  0.38963  0.63715  1.0000
  O   O545      1.0  0.14210  0.58333  0.82155  1.0000
  O   O546      1.0  0.02457  0.41667  0.57155  1.0000
  O   O547      1.0  0.10723  0.62037  0.97805  1.0000
  O   O548      1.0  0.05943  0.45370  0.72805  1.0000
  O   O549      1.0  0.10723  0.54630  0.97805  1.0000
  O   O550      1.0  0.05943  0.37963  0.72805  1.0000
  O   O551      1.0  0.08033  0.61940  0.89950  1.0000
  O   O552      1.0  0.08633  0.45273  0.64950  1.0000
  O   O553      1.0  0.08033  0.54727  0.89950  1.0000
  O   O554      1.0  0.08633  0.38060  0.64950  1.0000
  O   O555      1.0  0.09810  0.58333  0.52895  1.0000
  O   O556      1.0  0.06857  0.41667  0.77895  1.0000
  O   O557      1.0  0.06587  0.61043  0.50015  1.0000
  O   O558      1.0  0.10080  0.44377  0.75015  1.0000
  O   O559      1.0  0.06587  0.55623  0.50015  1.0000
  O   O560      1.0  0.10080  0.38957  0.75015  1.0000
  O   O561      1.0  0.03160  0.58333  0.51025  1.0000
  O   O562      1.0  0.13507  0.41667  0.76025  1.0000
  O   O563      1.0  0.02697  0.62233  0.96375  1.0000
  O   O564      1.0  0.13970  0.45567  0.71375  1.0000
  O   O565      1.0  0.02697  0.54433  0.96375  1.0000
  O   O566      1.0  0.13970  0.37767  0.71375  1.0000
  O   O567      1.0  0.19363  0.62233  0.78625  1.0000
  O   O568      1.0  0.03923  0.61233  0.87030  1.0000
  O   O569      1.0  0.12743  0.44567  0.62030  1.0000
  O   O570      1.0  0.03923  0.55433  0.87030  1.0000
  O   O571      1.0  0.12743  0.38767  0.62030  1.0000
  O   O572      1.0  0.20590  0.61233  0.87970  1.0000
  O   O573      1.0  0.07053  0.58333  0.84565  1.0000
  O   O574      1.0  0.09613  0.41667  0.59565  1.0000
  Si  Si228     1.0  0.14047  0.35703  0.84490  1.0000
  Si  Si229     1.0  0.02620  0.52370  0.59490  1.0000
  Si  Si230     1.0  0.14047  0.47630  0.84490  1.0000
  Si  Si231     1.0  0.02620  0.64297  0.59490  1.0000
  Si  Si232     1.0  0.19287  0.64297  0.65510  1.0000
  Si  Si233     1.0  0.10863  0.34453  0.92500  1.0000
  Si  Si234     1.0  0.05803  0.51120  0.67500  1.0000
  Si  Si235     1.0  0.10863  0.48880  0.92500  1.0000
  Si  Si236     1.0  0.05803  0.65547  0.67500  1.0000
  Si  Si237     1.0  0.09307  0.35120  0.53275  1.0000
  Si  Si238     1.0  0.07360  0.51787  0.78275  1.0000
  Si  Si239     1.0  0.09307  0.48213  0.53275  1.0000
  Si  Si240     1.0  0.07360  0.64880  0.78275  1.0000
  Si  Si241     1.0  0.04153  0.35047  0.52405  1.0000
  Si  Si242     1.0  0.12513  0.51713  0.77405  1.0000
  Si  Si243     1.0  0.04153  0.48287  0.52405  1.0000
  Si  Si244     1.0  0.12513  0.64953  0.77405  1.0000
  Si  Si245     1.0  0.02403  0.34533  0.91165  1.0000
  Si  Si246     1.0  0.14263  0.51200  0.66165  1.0000
  Si  Si247     1.0  0.02403  0.48800  0.91165  1.0000
  Si  Si248     1.0  0.14263  0.65467  0.66165  1.0000
  Si  Si249     1.0  0.19070  0.34533  0.83835  1.0000
  Si  Si250     1.0  0.06780  0.35623  0.85985  1.0000
  Si  Si251     1.0  0.09887  0.52290  0.60985  1.0000
  Si  Si252     1.0  0.06780  0.47710  0.85985  1.0000
  Si  Si253     1.0  0.09887  0.64377  0.60985  1.0000
  Si  Si254     1.0  0.13983  0.60913  0.84025  1.0000
  Si  Si255     1.0  0.02683  0.44247  0.59025  1.0000
  Si  Si256     1.0  0.13983  0.55753  0.84025  1.0000
  Si  Si257     1.0  0.02683  0.39087  0.59025  1.0000
  Si  Si258     1.0  0.10507  0.62550  0.91805  1.0000
  Si  Si259     1.0  0.06160  0.45883  0.66805  1.0000
  Si  Si260     1.0  0.10507  0.54117  0.91805  1.0000
  Si  Si261     1.0  0.06160  0.37450  0.66805  1.0000
  Si  Si262     1.0  0.09110  0.60927  0.52010  1.0000
  Si  Si263     1.0  0.07557  0.44260  0.77010  1.0000
  Si  Si264     1.0  0.09110  0.55740  0.52010  1.0000
  Si  Si265     1.0  0.07557  0.39073  0.77010  1.0000
  Si  Si266     1.0  0.03950  0.60930  0.50915  1.0000
  Si  Si267     1.0  0.12717  0.44263  0.75915  1.0000
  Si  Si268     1.0  0.03950  0.55737  0.50915  1.0000
  Si  Si269     1.0  0.12717  0.39070  0.75915  1.0000
  Si  Si270     1.0  0.02190  0.62647  0.90435  1.0000
  Si  Si271     1.0  0.14477  0.45980  0.65435  1.0000
  Si  Si272     1.0  0.02190  0.54020  0.90435  1.0000
  Si  Si273     1.0  0.14477  0.37353  0.65435  1.0000
  Si  Si274     1.0  0.18857  0.62647  0.84565  1.0000
  Si  Si275     1.0  0.06490  0.60960  0.85460  1.0000
  Si  Si276     1.0  0.10177  0.44293  0.60460  1.0000
  Si  Si277     1.0  0.06490  0.55707  0.85460  1.0000
  Si  Si278     1.0  0.10177  0.39040  0.60460  1.0000
  O   O575      1.0  0.16707  0.68997  0.35090  1.0000
  O   O576      1.0  0.33293  0.85663  0.10090  1.0000
  O   O577      1.0  0.16707  0.81003  0.35090  1.0000
  O   O578      1.0  0.33293  0.97670  0.10090  1.0000
  O   O579      1.0  0.16627  0.97670  0.14910  1.0000
  O   O580      1.0  0.00040  0.81003  0.39910  1.0000
  O   O581      1.0  0.16627  0.85663  0.14910  1.0000
  O   O582      1.0  0.00040  0.68997  0.39910  1.0000
  O   O583      1.0  0.12917  0.69143  0.40040  1.0000
  O   O584      1.0  0.03750  0.85810  0.15040  1.0000
  O   O585      1.0  0.12917  0.80857  0.40040  1.0000
  O   O586      1.0  0.03750  0.97523  0.15040  1.0000
  O   O587      1.0  0.20417  0.97523  0.09960  1.0000
  O   O588      1.0  0.29583  0.80857  0.34960  1.0000
  O   O589      1.0  0.20417  0.85810  0.09960  1.0000
  O   O590      1.0  0.13317  0.71220  0.31255  1.0000
  O   O591      1.0  0.03350  0.87887  0.06255  1.0000
  O   O592      1.0  0.13317  0.78780  0.31255  1.0000
  O   O593      1.0  0.03350  0.95447  0.06255  1.0000
  O   O594      1.0  0.20017  0.95447  0.18745  1.0000
  O   O595      1.0  0.29983  0.78780  0.43745  1.0000
  O   O596      1.0  0.20017  0.87887  0.18745  1.0000
  O   O597      1.0  0.13240  0.66780  0.31630  1.0000
  O   O598      1.0  0.03427  0.83447  0.06630  1.0000
  O   O599      1.0  0.13240  0.83220  0.31630  1.0000
  O   O600      1.0  0.03427  0.99887  0.06630  1.0000
  O   O601      1.0  0.20093  0.99887  0.18370  1.0000
  O   O602      1.0  0.29907  0.83220  0.43370  1.0000
  O   O603      1.0  0.20093  0.83447  0.18370  1.0000
  O   O604      1.0  0.10967  0.67950  0.48610  1.0000
  O   O605      1.0  0.05700  0.84617  0.23610  1.0000
  O   O606      1.0  0.10967  0.82050  0.48610  1.0000
  O   O607      1.0  0.05700  0.98717  0.23610  1.0000
  O   O608      1.0  0.22367  0.98717  0.01390  1.0000
  O   O609      1.0  0.27633  0.82050  0.26390  1.0000
  O   O610      1.0  0.22367  0.84617  0.01390  1.0000
  O   O611      1.0  0.10990  0.98517  0.40775  1.0000
  O   O612      1.0  0.05677  0.81850  0.15775  1.0000
  O   O613      1.0  0.10990  0.84817  0.40775  1.0000
  O   O614      1.0  0.05677  0.68150  0.15775  1.0000
  O   O615      1.0  0.22343  0.68150  0.09225  1.0000
  O   O616      1.0  0.27657  0.84817  0.34225  1.0000
  O   O617      1.0  0.22343  0.81850  0.09225  1.0000
  O   O618      1.0  0.27657  0.98517  0.34225  1.0000
  O   O619      1.0  0.08570  0.68877  0.40530  1.0000
  O   O620      1.0  0.08097  0.85543  0.15530  1.0000
  O   O621      1.0  0.08570  0.81123  0.40530  1.0000
  O   O622      1.0  0.08097  0.97790  0.15530  1.0000
  O   O623      1.0  0.24763  0.97790  0.09470  1.0000
  O   O624      1.0  0.25237  0.81123  0.34470  1.0000
  O   O625      1.0  0.24763  0.85543  0.09470  1.0000
  O   O626      1.0  0.09700  0.70987  0.05300  1.0000
  O   O627      1.0  0.06967  0.87653  0.30300  1.0000
  O   O628      1.0  0.09700  0.79013  0.05300  1.0000
  O   O629      1.0  0.06967  0.95680  0.30300  1.0000
  O   O630      1.0  0.23633  0.95680  0.44700  1.0000
  O   O631      1.0  0.26367  0.79013  0.19700  1.0000
  O   O632      1.0  0.23633  0.87653  0.44700  1.0000
  O   O633      1.0  0.06780  0.68183  0.01375  1.0000
  O   O634      1.0  0.09887  0.84850  0.26375  1.0000
  O   O635      1.0  0.06780  0.81817  0.01375  1.0000
  O   O636      1.0  0.09887  0.98483  0.26375  1.0000
  O   O637      1.0  0.26553  0.98483  0.48625  1.0000
  O   O638      1.0  0.23447  0.81817  0.23625  1.0000
  O   O639      1.0  0.26553  0.84850  0.48625  1.0000
  O   O640      1.0  0.23447  0.68183  0.23625  1.0000
  O   O641      1.0  0.09787  0.66700  0.07820  1.0000
  O   O642      1.0  0.06880  0.83367  0.32820  1.0000
  O   O643      1.0  0.09787  0.83300  0.07820  1.0000
  O   O644      1.0  0.06880  0.99967  0.32820  1.0000
  O   O645      1.0  0.23547  0.99967  0.42180  1.0000
  O   O646      1.0  0.26453  0.83300  0.17180  1.0000
  O   O647      1.0  0.23547  0.83367  0.42180  1.0000
  O   O648      1.0  0.03583  0.70883  0.04415  1.0000
  O   O649      1.0  0.13083  0.87550  0.29415  1.0000
  O   O650      1.0  0.03583  0.79117  0.04415  1.0000
  O   O651      1.0  0.13083  0.95783  0.29415  1.0000
  O   O652      1.0  0.29750  0.95783  0.45585  1.0000
  O   O653      1.0  0.20250  0.79117  0.20585  1.0000
  O   O654      1.0  0.29750  0.87550  0.45585  1.0000
  O   O655      1.0  0.20250  0.70883  0.20585  1.0000
  O   O656      1.0  0.02820  0.67900  0.47215  1.0000
  O   O657      1.0  0.13847  0.84567  0.22215  1.0000
  O   O658      1.0  0.02820  0.82100  0.47215  1.0000
  O   O659      1.0  0.13847  0.98767  0.22215  1.0000
  O   O660      1.0  0.30513  0.98767  0.02785  1.0000
  O   O661      1.0  0.19487  0.82100  0.27785  1.0000
  O   O662      1.0  0.30513  0.84567  0.02785  1.0000
  O   O663      1.0  0.19487  0.67900  0.27785  1.0000
  O   O664      1.0  0.04337  0.69270  0.38350  1.0000
  O   O665      1.0  0.12330  0.85937  0.13350  1.0000
  O   O666      1.0  0.04337  0.80730  0.38350  1.0000
  O   O667      1.0  0.12330  0.97397  0.13350  1.0000
  O   O668      1.0  0.28997  0.97397  0.11650  1.0000
  O   O669      1.0  0.21003  0.80730  0.36650  1.0000
  O   O670      1.0  0.28997  0.85937  0.11650  1.0000
  O   O671      1.0  0.21003  0.69270  0.36650  1.0000
  O   O672      1.0  0.02427  0.98630  0.39160  1.0000
  O   O673      1.0  0.14240  0.81963  0.14160  1.0000
  O   O674      1.0  0.02427  0.84703  0.39160  1.0000
  O   O675      1.0  0.14240  0.68037  0.14160  1.0000
  O   O676      1.0  0.19093  0.84703  0.35840  1.0000
  O   O677      1.0  0.30907  0.81963  0.10840  1.0000
  O   O678      1.0  0.19093  0.98630  0.35840  1.0000
  O   O679      1.0  0.07337  0.71043  0.32280  1.0000
  O   O680      1.0  0.09330  0.87710  0.07280  1.0000
  O   O681      1.0  0.07337  0.78957  0.32280  1.0000
  O   O682      1.0  0.09330  0.95623  0.07280  1.0000
  O   O683      1.0  0.25997  0.95623  0.17720  1.0000
  O   O684      1.0  0.24003  0.78957  0.42720  1.0000
  O   O685      1.0  0.25997  0.87710  0.17720  1.0000
  O   O686      1.0  0.24003  0.71043  0.42720  1.0000
  O   O687      1.0  0.16370  0.95160  0.35845  1.0000
  O   O688      1.0  0.00297  0.78493  0.10845  1.0000
  O   O689      1.0  0.16370  0.88173  0.35845  1.0000
  O   O690      1.0  0.00297  0.71507  0.10845  1.0000
  O   O691      1.0  0.16963  0.71507  0.14155  1.0000
  O   O692      1.0  0.33037  0.88173  0.39155  1.0000
  O   O693      1.0  0.16963  0.78493  0.14155  1.0000
  O   O694      1.0  0.33037  0.95160  0.39155  1.0000
  O   O695      1.0  0.12270  0.94370  0.38715  1.0000
  O   O696      1.0  0.04397  0.77703  0.13715  1.0000
  O   O697      1.0  0.12270  0.88963  0.38715  1.0000
  O   O698      1.0  0.04397  0.72297  0.13715  1.0000
  O   O699      1.0  0.21063  0.72297  0.11285  1.0000
  O   O700      1.0  0.28937  0.88963  0.36285  1.0000
  O   O701      1.0  0.21063  0.77703  0.11285  1.0000
  O   O702      1.0  0.28937  0.94370  0.36285  1.0000
  O   O703      1.0  0.14210  0.91667  0.32155  1.0000
  O   O704      1.0  0.02457  0.75000  0.07155  1.0000
  O   O705      1.0  0.19123  0.75000  0.17845  1.0000
  O   O706      1.0  0.30877  0.91667  0.42845  1.0000
  O   O707      1.0  0.10723  0.95370  0.47805  1.0000
  O   O708      1.0  0.05943  0.78703  0.22805  1.0000
  O   O709      1.0  0.10723  0.87963  0.47805  1.0000
  O   O710      1.0  0.05943  0.71297  0.22805  1.0000
  O   O711      1.0  0.22610  0.71297  0.02195  1.0000
  O   O712      1.0  0.27390  0.87963  0.27195  1.0000
  O   O713      1.0  0.22610  0.78703  0.02195  1.0000
  O   O714      1.0  0.27390  0.95370  0.27195  1.0000
  O   O715      1.0  0.08033  0.95273  0.39950  1.0000
  O   O716      1.0  0.08633  0.78607  0.14950  1.0000
  O   O717      1.0  0.08033  0.88060  0.39950  1.0000
  O   O718      1.0  0.08633  0.71393  0.14950  1.0000
  O   O719      1.0  0.25300  0.71393  0.10050  1.0000
  O   O720      1.0  0.24700  0.88060  0.35050  1.0000
  O   O721      1.0  0.25300  0.78607  0.10050  1.0000
  O   O722      1.0  0.24700  0.95273  0.35050  1.0000
  O   O723      1.0  0.09810  0.91667  0.02895  1.0000
  O   O724      1.0  0.06857  0.75000  0.27895  1.0000
  O   O725      1.0  0.23523  0.75000  0.47105  1.0000
  O   O726      1.0  0.26477  0.91667  0.22105  1.0000
  O   O727      1.0  0.06587  0.94377  0.00015  1.0000
  O   O728      1.0  0.10080  0.77710  0.25015  1.0000
  O   O729      1.0  0.06587  0.88957  0.00015  1.0000
  O   O730      1.0  0.10080  0.72290  0.25015  1.0000
  O   O731      1.0  0.26747  0.72290  0.49985  1.0000
  O   O732      1.0  0.23253  0.88957  0.24985  1.0000
  O   O733      1.0  0.26747  0.77710  0.49985  1.0000
  O   O734      1.0  0.23253  0.94377  0.24985  1.0000
  O   O735      1.0  0.03160  0.91667  0.01025  1.0000
  O   O736      1.0  0.13507  0.75000  0.26025  1.0000
  O   O737      1.0  0.30173  0.75000  0.48975  1.0000
  O   O738      1.0  0.19827  0.91667  0.23975  1.0000
  O   O739      1.0  0.02697  0.95567  0.46375  1.0000
  O   O740      1.0  0.13970  0.78900  0.21375  1.0000
  O   O741      1.0  0.02697  0.87767  0.46375  1.0000
  O   O742      1.0  0.13970  0.71100  0.21375  1.0000
  O   O743      1.0  0.19363  0.87767  0.28625  1.0000
  O   O744      1.0  0.30637  0.78900  0.03625  1.0000
  O   O745      1.0  0.19363  0.95567  0.28625  1.0000
  O   O746      1.0  0.03923  0.94567  0.37030  1.0000
  O   O747      1.0  0.12743  0.77900  0.12030  1.0000
  O   O748      1.0  0.03923  0.88767  0.37030  1.0000
  O   O749      1.0  0.12743  0.72100  0.12030  1.0000
  O   O750      1.0  0.20590  0.88767  0.37970  1.0000
  O   O751      1.0  0.29410  0.77900  0.12970  1.0000
  O   O752      1.0  0.20590  0.94567  0.37970  1.0000
  O   O753      1.0  0.07053  0.91667  0.34565  1.0000
  O   O754      1.0  0.09613  0.75000  0.09565  1.0000
  O   O755      1.0  0.26280  0.75000  0.15435  1.0000
  O   O756      1.0  0.23720  0.91667  0.40435  1.0000
  Si  Si279     1.0  0.14047  0.69037  0.34490  1.0000
  Si  Si280     1.0  0.02620  0.85703  0.09490  1.0000
  Si  Si281     1.0  0.14047  0.80963  0.34490  1.0000
  Si  Si282     1.0  0.02620  0.97630  0.09490  1.0000
  Si  Si283     1.0  0.19287  0.97630  0.15510  1.0000
  Si  Si284     1.0  0.30713  0.80963  0.40510  1.0000
  Si  Si285     1.0  0.19287  0.85703  0.15510  1.0000
  Si  Si286     1.0  0.10863  0.67787  0.42500  1.0000
  Si  Si287     1.0  0.05803  0.84453  0.17500  1.0000
  Si  Si288     1.0  0.10863  0.82213  0.42500  1.0000
  Si  Si289     1.0  0.05803  0.98880  0.17500  1.0000
  Si  Si290     1.0  0.22470  0.98880  0.07500  1.0000
  Si  Si291     1.0  0.27530  0.82213  0.32500  1.0000
  Si  Si292     1.0  0.22470  0.84453  0.07500  1.0000
  Si  Si293     1.0  0.09307  0.68453  0.03275  1.0000
  Si  Si294     1.0  0.07360  0.85120  0.28275  1.0000
  Si  Si295     1.0  0.09307  0.81547  0.03275  1.0000
  Si  Si296     1.0  0.07360  0.98213  0.28275  1.0000
  Si  Si297     1.0  0.24027  0.98213  0.46725  1.0000
  Si  Si298     1.0  0.25973  0.81547  0.21725  1.0000
  Si  Si299     1.0  0.24027  0.85120  0.46725  1.0000
  Si  Si300     1.0  0.04153  0.68380  0.02405  1.0000
  Si  Si301     1.0  0.12513  0.85047  0.27405  1.0000
  Si  Si302     1.0  0.04153  0.81620  0.02405  1.0000
  Si  Si303     1.0  0.12513  0.98287  0.27405  1.0000
  Si  Si304     1.0  0.29180  0.98287  0.47595  1.0000
  Si  Si305     1.0  0.20820  0.81620  0.22595  1.0000
  Si  Si306     1.0  0.29180  0.85047  0.47595  1.0000
  Si  Si307     1.0  0.20820  0.68380  0.22595  1.0000
  Si  Si308     1.0  0.02403  0.67867  0.41165  1.0000
  Si  Si309     1.0  0.14263  0.84533  0.16165  1.0000
  Si  Si310     1.0  0.02403  0.82133  0.41165  1.0000
  Si  Si311     1.0  0.14263  0.98800  0.16165  1.0000
  Si  Si312     1.0  0.30930  0.98800  0.08835  1.0000
  Si  Si313     1.0  0.19070  0.82133  0.33835  1.0000
  Si  Si314     1.0  0.30930  0.84533  0.08835  1.0000
  Si  Si315     1.0  0.19070  0.67867  0.33835  1.0000
  Si  Si316     1.0  0.06780  0.68957  0.35985  1.0000
  Si  Si317     1.0  0.09887  0.85623  0.10985  1.0000
  Si  Si318     1.0  0.06780  0.81043  0.35985  1.0000
  Si  Si319     1.0  0.09887  0.97710  0.10985  1.0000
  Si  Si320     1.0  0.26553  0.97710  0.14015  1.0000
  Si  Si321     1.0  0.23447  0.81043  0.39015  1.0000
  Si  Si322     1.0  0.26553  0.85623  0.14015  1.0000
  Si  Si323     1.0  0.13983  0.94247  0.34025  1.0000
  Si  Si324     1.0  0.02683  0.77580  0.09025  1.0000
  Si  Si325     1.0  0.13983  0.89087  0.34025  1.0000
  Si  Si326     1.0  0.02683  0.72420  0.09025  1.0000
  Si  Si327     1.0  0.19350  0.72420  0.15975  1.0000
  Si  Si328     1.0  0.30650  0.89087  0.40975  1.0000
  Si  Si329     1.0  0.19350  0.77580  0.15975  1.0000
  Si  Si330     1.0  0.30650  0.94247  0.40975  1.0000
  Si  Si331     1.0  0.10507  0.95883  0.41805  1.0000
  Si  Si332     1.0  0.06160  0.79217  0.16805  1.0000
  Si  Si333     1.0  0.10507  0.87450  0.41805  1.0000
  Si  Si334     1.0  0.06160  0.70783  0.16805  1.0000
  Si  Si335     1.0  0.22827  0.70783  0.08195  1.0000
  Si  Si336     1.0  0.27173  0.87450  0.33195  1.0000
  Si  Si337     1.0  0.22827  0.79217  0.08195  1.0000
  Si  Si338     1.0  0.27173  0.95883  0.33195  1.0000
  Si  Si339     1.0  0.09110  0.94260  0.02010  1.0000
  Si  Si340     1.0  0.07557  0.77593  0.27010  1.0000
  Si  Si341     1.0  0.09110  0.89073  0.02010  1.0000
  Si  Si342     1.0  0.07557  0.72407  0.27010  1.0000
  Si  Si343     1.0  0.24223  0.72407  0.47990  1.0000
  Si  Si344     1.0  0.25777  0.89073  0.22990  1.0000
  Si  Si345     1.0  0.24223  0.77593  0.47990  1.0000
  Si  Si346     1.0  0.25777  0.94260  0.22990  1.0000
  Si  Si347     1.0  0.03950  0.94263  0.00915  1.0000
  Si  Si348     1.0  0.12717  0.77597  0.25915  1.0000
  Si  Si349     1.0  0.03950  0.89070  0.00915  1.0000
  Si  Si350     1.0  0.12717  0.72403  0.25915  1.0000
  Si  Si351     1.0  0.20617  0.89070  0.24085  1.0000
  Si  Si352     1.0  0.29383  0.77597  0.49085  1.0000
  Si  Si353     1.0  0.20617  0.94263  0.24085  1.0000
  Si  Si354     1.0  0.02190  0.95980  0.40435  1.0000
  Si  Si355     1.0  0.14477  0.79313  0.15435  1.0000
  Si  Si356     1.0  0.02190  0.87353  0.40435  1.0000
  Si  Si357     1.0  0.14477  0.70687  0.15435  1.0000
  Si  Si358     1.0  0.18857  0.87353  0.34565  1.0000
  Si  Si359     1.0  0.31143  0.79313  0.09565  1.0000
  Si  Si360     1.0  0.18857  0.95980  0.34565  1.0000
  Si  Si361     1.0  0.06490  0.94293  0.35460  1.0000
  Si  Si362     1.0  0.10177  0.77627  0.10460  1.0000
  Si  Si363     1.0  0.06490  0.89040  0.35460  1.0000
  Si  Si364     1.0  0.10177  0.72373  0.10460  1.0000
  Si  Si365     1.0  0.23157  0.89040  0.39540  1.0000
  Si  Si366     1.0  0.26843  0.77627  0.14540  1.0000
  Si  Si367     1.0  0.23157  0.94293  0.39540  1.0000
  O   O757      1.0  0.16707  0.68997  0.85090  1.0000
  O   O758      1.0  0.33293  0.85663  0.60090  1.0000
  O   O759      1.0  0.16707  0.81003  0.85090  1.0000
  O   O760      1.0  0.33293  0.97670  0.60090  1.0000
  O   O761      1.0  0.16627  0.97670  0.64910  1.0000
  O   O762      1.0  0.00040  0.81003  0.89910  1.0000
  O   O763      1.0  0.16627  0.85663  0.64910  1.0000
  O   O764      1.0  0.00040  0.68997  0.89910  1.0000
  O   O765      1.0  0.12917  0.69143  0.90040  1.0000
  O   O766      1.0  0.03750  0.85810  0.65040  1.0000
  O   O767      1.0  0.12917  0.80857  0.90040  1.0000
  O   O768      1.0  0.03750  0.97523  0.65040  1.0000
  O   O769      1.0  0.20417  0.97523  0.59960  1.0000
  O   O770      1.0  0.29583  0.80857  0.84960  1.0000
  O   O771      1.0  0.20417  0.85810  0.59960  1.0000
  O   O772      1.0  0.13317  0.71220  0.81255  1.0000
  O   O773      1.0  0.03350  0.87887  0.56255  1.0000
  O   O774      1.0  0.13317  0.78780  0.81255  1.0000
  O   O775      1.0  0.03350  0.95447  0.56255  1.0000
  O   O776      1.0  0.20017  0.95447  0.68745  1.0000
  O   O777      1.0  0.29983  0.78780  0.93745  1.0000
  O   O778      1.0  0.20017  0.87887  0.68745  1.0000
  O   O779      1.0  0.13240  0.66780  0.81630  1.0000
  O   O780      1.0  0.03427  0.83447  0.56630  1.0000
  O   O781      1.0  0.13240  0.83220  0.81630  1.0000
  O   O782      1.0  0.03427  0.99887  0.56630  1.0000
  O   O783      1.0  0.20093  0.99887  0.68370  1.0000
  O   O784      1.0  0.29907  0.83220  0.93370  1.0000
  O   O785      1.0  0.20093  0.83447  0.68370  1.0000
  O   O786      1.0  0.10967  0.67950  0.98610  1.0000
  O   O787      1.0  0.05700  0.84617  0.73610  1.0000
  O   O788      1.0  0.10967  0.82050  0.98610  1.0000
  O   O789      1.0  0.05700  0.98717  0.73610  1.0000
  O   O790      1.0  0.22367  0.98717  0.51390  1.0000
  O   O791      1.0  0.27633  0.82050  0.76390  1.0000
  O   O792      1.0  0.22367  0.84617  0.51390  1.0000
  O   O793      1.0  0.10990  0.98517  0.90775  1.0000
  O   O794      1.0  0.05677  0.81850  0.65775  1.0000
  O   O795      1.0  0.10990  0.84817  0.90775  1.0000
  O   O796      1.0  0.05677  0.68150  0.65775  1.0000
  O   O797      1.0  0.22343  0.68150  0.59225  1.0000
  O   O798      1.0  0.27657  0.84817  0.84225  1.0000
  O   O799      1.0  0.22343  0.81850  0.59225  1.0000
  O   O800      1.0  0.27657  0.98517  0.84225  1.0000
  O   O801      1.0  0.08570  0.68877  0.90530  1.0000
  O   O802      1.0  0.08097  0.85543  0.65530  1.0000
  O   O803      1.0  0.08570  0.81123  0.90530  1.0000
  O   O804      1.0  0.08097  0.97790  0.65530  1.0000
  O   O805      1.0  0.24763  0.97790  0.59470  1.0000
  O   O806      1.0  0.25237  0.81123  0.84470  1.0000
  O   O807      1.0  0.24763  0.85543  0.59470  1.0000
  O   O808      1.0  0.09700  0.70987  0.55300  1.0000
  O   O809      1.0  0.06967  0.87653  0.80300  1.0000
  O   O810      1.0  0.09700  0.79013  0.55300  1.0000
  O   O811      1.0  0.06967  0.95680  0.80300  1.0000
  O   O812      1.0  0.23633  0.95680  0.94700  1.0000
  O   O813      1.0  0.26367  0.79013  0.69700  1.0000
  O   O814      1.0  0.23633  0.87653  0.94700  1.0000
  O   O815      1.0  0.06780  0.68183  0.51375  1.0000
  O   O816      1.0  0.09887  0.84850  0.76375  1.0000
  O   O817      1.0  0.06780  0.81817  0.51375  1.0000
  O   O818      1.0  0.09887  0.98483  0.76375  1.0000
  O   O819      1.0  0.26553  0.98483  0.98625  1.0000
  O   O820      1.0  0.23447  0.81817  0.73625  1.0000
  O   O821      1.0  0.26553  0.84850  0.98625  1.0000
  O   O822      1.0  0.23447  0.68183  0.73625  1.0000
  O   O823      1.0  0.09787  0.66700  0.57820  1.0000
  O   O824      1.0  0.06880  0.83367  0.82820  1.0000
  O   O825      1.0  0.09787  0.83300  0.57820  1.0000
  O   O826      1.0  0.06880  0.99967  0.82820  1.0000
  O   O827      1.0  0.23547  0.99967  0.92180  1.0000
  O   O828      1.0  0.26453  0.83300  0.67180  1.0000
  O   O829      1.0  0.23547  0.83367  0.92180  1.0000
  O   O830      1.0  0.03583  0.70883  0.54415  1.0000
  O   O831      1.0  0.13083  0.87550  0.79415  1.0000
  O   O832      1.0  0.03583  0.79117  0.54415  1.0000
  O   O833      1.0  0.13083  0.95783  0.79415  1.0000
  O   O834      1.0  0.29750  0.95783  0.95585  1.0000
  O   O835      1.0  0.20250  0.79117  0.70585  1.0000
  O   O836      1.0  0.29750  0.87550  0.95585  1.0000
  O   O837      1.0  0.20250  0.70883  0.70585  1.0000
  O   O838      1.0  0.02820  0.67900  0.97215  1.0000
  O   O839      1.0  0.13847  0.84567  0.72215  1.0000
  O   O840      1.0  0.02820  0.82100  0.97215  1.0000
  O   O841      1.0  0.13847  0.98767  0.72215  1.0000
  O   O842      1.0  0.30513  0.98767  0.52785  1.0000
  O   O843      1.0  0.19487  0.82100  0.77785  1.0000
  O   O844      1.0  0.30513  0.84567  0.52785  1.0000
  O   O845      1.0  0.19487  0.67900  0.77785  1.0000
  O   O846      1.0  0.04337  0.69270  0.88350  1.0000
  O   O847      1.0  0.12330  0.85937  0.63350  1.0000
  O   O848      1.0  0.04337  0.80730  0.88350  1.0000
  O   O849      1.0  0.12330  0.97397  0.63350  1.0000
  O   O850      1.0  0.28997  0.97397  0.61650  1.0000
  O   O851      1.0  0.21003  0.80730  0.86650  1.0000
  O   O852      1.0  0.28997  0.85937  0.61650  1.0000
  O   O853      1.0  0.21003  0.69270  0.86650  1.0000
  O   O854      1.0  0.02427  0.98630  0.89160  1.0000
  O   O855      1.0  0.14240  0.81963  0.64160  1.0000
  O   O856      1.0  0.02427  0.84703  0.89160  1.0000
  O   O857      1.0  0.14240  0.68037  0.64160  1.0000
  O   O858      1.0  0.19093  0.84703  0.85840  1.0000
  O   O859      1.0  0.30907  0.81963  0.60840  1.0000
  O   O860      1.0  0.19093  0.98630  0.85840  1.0000
  O   O861      1.0  0.07337  0.71043  0.82280  1.0000
  O   O862      1.0  0.09330  0.87710  0.57280  1.0000
  O   O863      1.0  0.07337  0.78957  0.82280  1.0000
  O   O864      1.0  0.09330  0.95623  0.57280  1.0000
  O   O865      1.0  0.25997  0.95623  0.67720  1.0000
  O   O866      1.0  0.24003  0.78957  0.92720  1.0000
  O   O867      1.0  0.25997  0.87710  0.67720  1.0000
  O   O868      1.0  0.24003  0.71043  0.92720  1.0000
  O   O869      1.0  0.16370  0.95160  0.85845  1.0000
  O   O870      1.0  0.00297  0.78493  0.60845  1.0000
  O   O871      1.0  0.16370  0.88173  0.85845  1.0000
  O   O872      1.0  0.00297  0.71507  0.60845  1.0000
  O   O873      1.0  0.16963  0.71507  0.64155  1.0000
  O   O874      1.0  0.33037  0.88173  0.89155  1.0000
  O   O875      1.0  0.16963  0.78493  0.64155  1.0000
  O   O876      1.0  0.33037  0.95160  0.89155  1.0000
  O   O877      1.0  0.12270  0.94370  0.88715  1.0000
  O   O878      1.0  0.04397  0.77703  0.63715  1.0000
  O   O879      1.0  0.12270  0.88963  0.88715  1.0000
  O   O880      1.0  0.04397  0.72297  0.63715  1.0000
  O   O881      1.0  0.21063  0.72297  0.61285  1.0000
  O   O882      1.0  0.28937  0.88963  0.86285  1.0000
  O   O883      1.0  0.21063  0.77703  0.61285  1.0000
  O   O884      1.0  0.28937  0.94370  0.86285  1.0000
  O   O885      1.0  0.14210  0.91667  0.82155  1.0000
  O   O886      1.0  0.02457  0.75000  0.57155  1.0000
  O   O887      1.0  0.19123  0.75000  0.67845  1.0000
  O   O888      1.0  0.30877  0.91667  0.92845  1.0000
  O   O889      1.0  0.10723  0.95370  0.97805  1.0000
  O   O890      1.0  0.05943  0.78703  0.72805  1.0000
  O   O891      1.0  0.10723  0.87963  0.97805  1.0000
  O   O892      1.0  0.05943  0.71297  0.72805  1.0000
  O   O893      1.0  0.22610  0.71297  0.52195  1.0000
  O   O894      1.0  0.27390  0.87963  0.77195  1.0000
  O   O895      1.0  0.22610  0.78703  0.52195  1.0000
  O   O896      1.0  0.27390  0.95370  0.77195  1.0000
  O   O897      1.0  0.08033  0.95273  0.89950  1.0000
  O   O898      1.0  0.08633  0.78607  0.64950  1.0000
  O   O899      1.0  0.08033  0.88060  0.89950  1.0000
  O   O900      1.0  0.08633  0.71393  0.64950  1.0000
  O   O901      1.0  0.25300  0.71393  0.60050  1.0000
  O   O902      1.0  0.24700  0.88060  0.85050  1.0000
  O   O903      1.0  0.25300  0.78607  0.60050  1.0000
  O   O904      1.0  0.24700  0.95273  0.85050  1.0000
  O   O905      1.0  0.09810  0.91667  0.52895  1.0000
  O   O906      1.0  0.06857  0.75000  0.77895  1.0000
  O   O907      1.0  0.23523  0.75000  0.97105  1.0000
  O   O908      1.0  0.26477  0.91667  0.72105  1.0000
  O   O909      1.0  0.06587  0.94377  0.50015  1.0000
  O   O910      1.0  0.10080  0.77710  0.75015  1.0000
  O   O911      1.0  0.06587  0.88957  0.50015  1.0000
  O   O912      1.0  0.10080  0.72290  0.75015  1.0000
  O   O913      1.0  0.26747  0.72290  0.99985  1.0000
  O   O914      1.0  0.23253  0.88957  0.74985  1.0000
  O   O915      1.0  0.26747  0.77710  0.99985  1.0000
  O   O916      1.0  0.23253  0.94377  0.74985  1.0000
  O   O917      1.0  0.03160  0.91667  0.51025  1.0000
  O   O918      1.0  0.13507  0.75000  0.76025  1.0000
  O   O919      1.0  0.30173  0.75000  0.98975  1.0000
  O   O920      1.0  0.19827  0.91667  0.73975  1.0000
  O   O921      1.0  0.02697  0.95567  0.96375  1.0000
  O   O922      1.0  0.13970  0.78900  0.71375  1.0000
  O   O923      1.0  0.02697  0.87767  0.96375  1.0000
  O   O924      1.0  0.13970  0.71100  0.71375  1.0000
  O   O925      1.0  0.19363  0.87767  0.78625  1.0000
  O   O926      1.0  0.30637  0.78900  0.53625  1.0000
  O   O927      1.0  0.19363  0.95567  0.78625  1.0000
  O   O928      1.0  0.03923  0.94567  0.87030  1.0000
  O   O929      1.0  0.12743  0.77900  0.62030  1.0000
  O   O930      1.0  0.03923  0.88767  0.87030  1.0000
  O   O931      1.0  0.12743  0.72100  0.62030  1.0000
  O   O932      1.0  0.20590  0.88767  0.87970  1.0000
  O   O933      1.0  0.29410  0.77900  0.62970  1.0000
  O   O934      1.0  0.20590  0.94567  0.87970  1.0000
  O   O935      1.0  0.07053  0.91667  0.84565  1.0000
  O   O936      1.0  0.09613  0.75000  0.59565  1.0000
  O   O937      1.0  0.26280  0.75000  0.65435  1.0000
  O   O938      1.0  0.23720  0.91667  0.90435  1.0000
  Si  Si368     1.0  0.14047  0.69037  0.84490  1.0000
  Si  Si369     1.0  0.02620  0.85703  0.59490  1.0000
  Si  Si370     1.0  0.14047  0.80963  0.84490  1.0000
  Si  Si371     1.0  0.02620  0.97630  0.59490  1.0000
  Si  Si372     1.0  0.19287  0.97630  0.65510  1.0000
  Si  Si373     1.0  0.30713  0.80963  0.90510  1.0000
  Si  Si374     1.0  0.19287  0.85703  0.65510  1.0000
  Si  Si375     1.0  0.10863  0.67787  0.92500  1.0000
  Si  Si376     1.0  0.05803  0.84453  0.67500  1.0000
  Si  Si377     1.0  0.10863  0.82213  0.92500  1.0000
  Si  Si378     1.0  0.05803  0.98880  0.67500  1.0000
  Si  Si379     1.0  0.22470  0.98880  0.57500  1.0000
  Si  Si380     1.0  0.27530  0.82213  0.82500  1.0000
  Si  Si381     1.0  0.22470  0.84453  0.57500  1.0000
  Si  Si382     1.0  0.09307  0.68453  0.53275  1.0000
  Si  Si383     1.0  0.07360  0.85120  0.78275  1.0000
  Si  Si384     1.0  0.09307  0.81547  0.53275  1.0000
  Si  Si385     1.0  0.07360  0.98213  0.78275  1.0000
  Si  Si386     1.0  0.24027  0.98213  0.96725  1.0000
  Si  Si387     1.0  0.25973  0.81547  0.71725  1.0000
  Si  Si388     1.0  0.24027  0.85120  0.96725  1.0000
  Si  Si389     1.0  0.04153  0.68380  0.52405  1.0000
  Si  Si390     1.0  0.12513  0.85047  0.77405  1.0000
  Si  Si391     1.0  0.04153  0.81620  0.52405  1.0000
  Si  Si392     1.0  0.12513  0.98287  0.77405  1.0000
  Si  Si393     1.0  0.29180  0.98287  0.97595  1.0000
  Si  Si394     1.0  0.20820  0.81620  0.72595  1.0000
  Si  Si395     1.0  0.29180  0.85047  0.97595  1.0000
  Si  Si396     1.0  0.20820  0.68380  0.72595  1.0000
  Si  Si397     1.0  0.02403  0.67867  0.91165  1.0000
  Si  Si398     1.0  0.14263  0.84533  0.66165  1.0000
  Si  Si399     1.0  0.02403  0.82133  0.91165  1.0000
  Si  Si400     1.0  0.14263  0.98800  0.66165  1.0000
  Si  Si401     1.0  0.30930  0.98800  0.58835  1.0000
  Si  Si402     1.0  0.19070  0.82133  0.83835  1.0000
  Si  Si403     1.0  0.30930  0.84533  0.58835  1.0000
  Si  Si404     1.0  0.19070  0.67867  0.83835  1.0000
  Si  Si405     1.0  0.06780  0.68957  0.85985  1.0000
  Si  Si406     1.0  0.09887  0.85623  0.60985  1.0000
  Si  Si407     1.0  0.06780  0.81043  0.85985  1.0000
  Si  Si408     1.0  0.09887  0.97710  0.60985  1.0000
  Si  Si409     1.0  0.26553  0.97710  0.64015  1.0000
  Si  Si410     1.0  0.23447  0.81043  0.89015  1.0000
  Si  Si411     1.0  0.26553  0.85623  0.64015  1.0000
  Si  Si412     1.0  0.13983  0.94247  0.84025  1.0000
  Si  Si413     1.0  0.02683  0.77580  0.59025  1.0000
  Si  Si414     1.0  0.13983  0.89087  0.84025  1.0000
  Si  Si415     1.0  0.02683  0.72420  0.59025  1.0000
  Si  Si416     1.0  0.19350  0.72420  0.65975  1.0000
  Si  Si417     1.0  0.30650  0.89087  0.90975  1.0000
  Si  Si418     1.0  0.19350  0.77580  0.65975  1.0000
  Si  Si419     1.0  0.30650  0.94247  0.90975  1.0000
  Si  Si420     1.0  0.10507  0.95883  0.91805  1.0000
  Si  Si421     1.0  0.06160  0.79217  0.66805  1.0000
  Si  Si422     1.0  0.10507  0.87450  0.91805  1.0000
  Si  Si423     1.0  0.06160  0.70783  0.66805  1.0000
  Si  Si424     1.0  0.22827  0.70783  0.58195  1.0000
  Si  Si425     1.0  0.27173  0.87450  0.83195  1.0000
  Si  Si426     1.0  0.22827  0.79217  0.58195  1.0000
  Si  Si427     1.0  0.27173  0.95883  0.83195  1.0000
  Si  Si428     1.0  0.09110  0.94260  0.52010  1.0000
  Si  Si429     1.0  0.07557  0.77593  0.77010  1.0000
  Si  Si430     1.0  0.09110  0.89073  0.52010  1.0000
  Si  Si431     1.0  0.07557  0.72407  0.77010  1.0000
  Si  Si432     1.0  0.24223  0.72407  0.97990  1.0000
  Si  Si433     1.0  0.25777  0.89073  0.72990  1.0000
  Si  Si434     1.0  0.24223  0.77593  0.97990  1.0000
  Si  Si435     1.0  0.25777  0.94260  0.72990  1.0000
  Si  Si436     1.0  0.03950  0.94263  0.50915  1.0000
  Si  Si437     1.0  0.12717  0.77597  0.75915  1.0000
  Si  Si438     1.0  0.03950  0.89070  0.50915  1.0000
  Si  Si439     1.0  0.12717  0.72403  0.75915  1.0000
  Si  Si440     1.0  0.20617  0.89070  0.74085  1.0000
  Si  Si441     1.0  0.29383  0.77597  0.99085  1.0000
  Si  Si442     1.0  0.20617  0.94263  0.74085  1.0000
  Si  Si443     1.0  0.02190  0.95980  0.90435  1.0000
  Si  Si444     1.0  0.14477  0.79313  0.65435  1.0000
  Si  Si445     1.0  0.02190  0.87353  0.90435  1.0000
  Si  Si446     1.0  0.14477  0.70687  0.65435  1.0000
  Si  Si447     1.0  0.18857  0.87353  0.84565  1.0000
  Si  Si448     1.0  0.31143  0.79313  0.59565  1.0000
  Si  Si449     1.0  0.18857  0.95980  0.84565  1.0000
  Si  Si450     1.0  0.06490  0.94293  0.85460  1.0000
  Si  Si451     1.0  0.10177  0.77627  0.60460  1.0000
  Si  Si452     1.0  0.06490  0.89040  0.85460  1.0000
  Si  Si453     1.0  0.10177  0.72373  0.60460  1.0000
  Si  Si454     1.0  0.23157  0.89040  0.89540  1.0000
  Si  Si455     1.0  0.26843  0.77627  0.64540  1.0000
  Si  Si456     1.0  0.23157  0.94293  0.89540  1.0000
  O   O939      1.0  0.50040  0.02330  0.35090  1.0000
  O   O940      1.0  0.66627  0.18997  0.10090  1.0000
  O   O941      1.0  0.50040  0.14337  0.35090  1.0000
  O   O942      1.0  0.33373  0.14337  0.39910  1.0000
  O   O943      1.0  0.33373  0.02330  0.39910  1.0000
  O   O944      1.0  0.46250  0.02477  0.40040  1.0000
  O   O945      1.0  0.37083  0.19143  0.15040  1.0000
  O   O946      1.0  0.46250  0.14190  0.40040  1.0000
  O   O947      1.0  0.62917  0.14190  0.34960  1.0000
  O   O948      1.0  0.62917  0.02477  0.34960  1.0000
  O   O949      1.0  0.46650  0.04553  0.31255  1.0000
  O   O950      1.0  0.36683  0.21220  0.06255  1.0000
  O   O951      1.0  0.46650  0.12113  0.31255  1.0000
  O   O952      1.0  0.63317  0.12113  0.43745  1.0000
  O   O953      1.0  0.63317  0.04553  0.43745  1.0000
  O   O954      1.0  0.46573  0.00113  0.31630  1.0000
  O   O955      1.0  0.36760  0.16780  0.06630  1.0000
  O   O956      1.0  0.46573  0.16553  0.31630  1.0000
  O   O957      1.0  0.63240  0.16553  0.43370  1.0000
  O   O958      1.0  0.53427  0.16780  0.18370  1.0000
  O   O959      1.0  0.63240  0.00113  0.43370  1.0000
  O   O960      1.0  0.44300  0.01283  0.48610  1.0000
  O   O961      1.0  0.39033  0.17950  0.23610  1.0000
  O   O962      1.0  0.44300  0.15383  0.48610  1.0000
  O   O963      1.0  0.60967  0.15383  0.26390  1.0000
  O   O964      1.0  0.60967  0.01283  0.26390  1.0000
  O   O965      1.0  0.39010  0.15183  0.15775  1.0000
  O   O966      1.0  0.44323  0.18150  0.40775  1.0000
  O   O967      1.0  0.39010  0.01483  0.15775  1.0000
  O   O968      1.0  0.55677  0.01483  0.09225  1.0000
  O   O969      1.0  0.60990  0.18150  0.34225  1.0000
  O   O970      1.0  0.55677  0.15183  0.09225  1.0000
  O   O971      1.0  0.41903  0.02210  0.40530  1.0000
  O   O972      1.0  0.41430  0.18877  0.15530  1.0000
  O   O973      1.0  0.41903  0.14457  0.40530  1.0000
  O   O974      1.0  0.58570  0.14457  0.34470  1.0000
  O   O975      1.0  0.58570  0.02210  0.34470  1.0000
  O   O976      1.0  0.43033  0.04320  0.05300  1.0000
  O   O977      1.0  0.43033  0.12347  0.05300  1.0000
  O   O978      1.0  0.59700  0.12347  0.19700  1.0000
  O   O979      1.0  0.59700  0.04320  0.19700  1.0000
  O   O980      1.0  0.40113  0.01517  0.01375  1.0000
  O   O981      1.0  0.40113  0.15150  0.01375  1.0000
  O   O982      1.0  0.56780  0.15150  0.23625  1.0000
  O   O983      1.0  0.59887  0.18183  0.48625  1.0000
  O   O984      1.0  0.56780  0.01517  0.23625  1.0000
  O   O985      1.0  0.43120  0.00033  0.07820  1.0000
  O   O986      1.0  0.40213  0.16700  0.32820  1.0000
  O   O987      1.0  0.43120  0.16633  0.07820  1.0000
  O   O988      1.0  0.59787  0.16633  0.17180  1.0000
  O   O989      1.0  0.56880  0.16700  0.42180  1.0000
  O   O990      1.0  0.59787  0.00033  0.17180  1.0000
  O   O991      1.0  0.36917  0.04217  0.04415  1.0000
  O   O992      1.0  0.36917  0.12450  0.04415  1.0000
  O   O993      1.0  0.53583  0.12450  0.20585  1.0000
  O   O994      1.0  0.63083  0.20883  0.45585  1.0000
  O   O995      1.0  0.53583  0.04217  0.20585  1.0000
  O   O996      1.0  0.36153  0.01233  0.47215  1.0000
  O   O997      1.0  0.36153  0.15433  0.47215  1.0000
  O   O998      1.0  0.52820  0.15433  0.27785  1.0000
  O   O999      1.0  0.63847  0.17900  0.02785  1.0000
  O   O1000     1.0  0.52820  0.01233  0.27785  1.0000
  O   O1001     1.0  0.37670  0.02603  0.38350  1.0000
  O   O1002     1.0  0.37670  0.14063  0.38350  1.0000
  O   O1003     1.0  0.54337  0.14063  0.36650  1.0000
  O   O1004     1.0  0.62330  0.19270  0.11650  1.0000
  O   O1005     1.0  0.54337  0.02603  0.36650  1.0000
  O   O1006     1.0  0.47573  0.15297  0.14160  1.0000
  O   O1007     1.0  0.35760  0.18037  0.39160  1.0000
  O   O1008     1.0  0.47573  0.01370  0.14160  1.0000
  O   O1009     1.0  0.64240  0.01370  0.10840  1.0000
  O   O1010     1.0  0.52427  0.18037  0.35840  1.0000
  O   O1011     1.0  0.64240  0.15297  0.10840  1.0000
  O   O1012     1.0  0.40670  0.04377  0.32280  1.0000
  O   O1013     1.0  0.40670  0.12290  0.32280  1.0000
  O   O1014     1.0  0.57337  0.12290  0.42720  1.0000
  O   O1015     1.0  0.57337  0.04377  0.42720  1.0000
  O   O1016     1.0  0.33630  0.11827  0.10845  1.0000
  O   O1017     1.0  0.33630  0.04840  0.10845  1.0000
  O   O1018     1.0  0.50297  0.04840  0.14155  1.0000
  O   O1019     1.0  0.66370  0.21507  0.39155  1.0000
  O   O1020     1.0  0.50297  0.11827  0.14155  1.0000
  O   O1021     1.0  0.37730  0.11037  0.13715  1.0000
  O   O1022     1.0  0.37730  0.05630  0.13715  1.0000
  O   O1023     1.0  0.54397  0.05630  0.11285  1.0000
  O   O1024     1.0  0.54397  0.11037  0.11285  1.0000
  O   O1025     1.0  0.35790  0.08333  0.07155  1.0000
  O   O1026     1.0  0.52457  0.08333  0.17845  1.0000
  O   O1027     1.0  0.39277  0.12037  0.22805  1.0000
  O   O1028     1.0  0.39277  0.04630  0.22805  1.0000
  O   O1029     1.0  0.55943  0.04630  0.02195  1.0000
  O   O1030     1.0  0.55943  0.12037  0.02195  1.0000
  O   O1031     1.0  0.41967  0.11940  0.14950  1.0000
  O   O1032     1.0  0.41967  0.04727  0.14950  1.0000
  O   O1033     1.0  0.58633  0.04727  0.10050  1.0000
  O   O1034     1.0  0.58633  0.11940  0.10050  1.0000
  O   O1035     1.0  0.40190  0.08333  0.27895  1.0000
  O   O1036     1.0  0.56857  0.08333  0.47105  1.0000
  O   O1037     1.0  0.43413  0.11043  0.25015  1.0000
  O   O1038     1.0  0.43413  0.05623  0.25015  1.0000
  O   O1039     1.0  0.60080  0.05623  0.49985  1.0000
  O   O1040     1.0  0.60080  0.11043  0.49985  1.0000
  O   O1041     1.0  0.46840  0.08333  0.26025  1.0000
  O   O1042     1.0  0.63507  0.08333  0.48975  1.0000
  O   O1043     1.0  0.47303  0.12233  0.21375  1.0000
  O   O1044     1.0  0.47303  0.04433  0.21375  1.0000
  O   O1045     1.0  0.63970  0.04433  0.03625  1.0000
  O   O1046     1.0  0.63970  0.12233  0.03625  1.0000
  O   O1047     1.0  0.46077  0.11233  0.12030  1.0000
  O   O1048     1.0  0.46077  0.05433  0.12030  1.0000
  O   O1049     1.0  0.62743  0.05433  0.12970  1.0000
  O   O1050     1.0  0.62743  0.11233  0.12970  1.0000
  O   O1051     1.0  0.42947  0.08333  0.09565  1.0000
  O   O1052     1.0  0.59613  0.08333  0.15435  1.0000
  Si  Si457     1.0  0.47380  0.02370  0.34490  1.0000
  Si  Si458     1.0  0.35953  0.19037  0.09490  1.0000
  Si  Si459     1.0  0.47380  0.14297  0.34490  1.0000
  Si  Si460     1.0  0.64047  0.14297  0.40510  1.0000
  Si  Si461     1.0  0.64047  0.02370  0.40510  1.0000
  Si  Si462     1.0  0.44197  0.01120  0.42500  1.0000
  Si  Si463     1.0  0.39137  0.17787  0.17500  1.0000
  Si  Si464     1.0  0.44197  0.15547  0.42500  1.0000
  Si  Si465     1.0  0.60863  0.15547  0.32500  1.0000
  Si  Si466     1.0  0.60863  0.01120  0.32500  1.0000
  Si  Si467     1.0  0.42640  0.01787  0.03275  1.0000
  Si  Si468     1.0  0.42640  0.14880  0.03275  1.0000
  Si  Si469     1.0  0.59307  0.14880  0.21725  1.0000
  Si  Si470     1.0  0.59307  0.01787  0.21725  1.0000
  Si  Si471     1.0  0.37487  0.01713  0.02405  1.0000
  Si  Si472     1.0  0.37487  0.14953  0.02405  1.0000
  Si  Si473     1.0  0.54153  0.14953  0.22595  1.0000
  Si  Si474     1.0  0.62513  0.18380  0.47595  1.0000
  Si  Si475     1.0  0.54153  0.01713  0.22595  1.0000
  Si  Si476     1.0  0.35737  0.01200  0.41165  1.0000
  Si  Si477     1.0  0.35737  0.15467  0.41165  1.0000
  Si  Si478     1.0  0.52403  0.15467  0.33835  1.0000
  Si  Si479     1.0  0.64263  0.17867  0.08835  1.0000
  Si  Si480     1.0  0.52403  0.01200  0.33835  1.0000
  Si  Si481     1.0  0.40113  0.02290  0.35985  1.0000
  Si  Si482     1.0  0.40113  0.14377  0.35985  1.0000
  Si  Si483     1.0  0.56780  0.14377  0.39015  1.0000
  Si  Si484     1.0  0.56780  0.02290  0.39015  1.0000
  Si  Si485     1.0  0.36017  0.10913  0.09025  1.0000
  Si  Si486     1.0  0.36017  0.05753  0.09025  1.0000
  Si  Si487     1.0  0.52683  0.05753  0.15975  1.0000
  Si  Si488     1.0  0.52683  0.10913  0.15975  1.0000
  Si  Si489     1.0  0.39493  0.12550  0.16805  1.0000
  Si  Si490     1.0  0.39493  0.04117  0.16805  1.0000
  Si  Si491     1.0  0.56160  0.04117  0.08195  1.0000
  Si  Si492     1.0  0.56160  0.12550  0.08195  1.0000
  Si  Si493     1.0  0.40890  0.10927  0.27010  1.0000
  Si  Si494     1.0  0.40890  0.05740  0.27010  1.0000
  Si  Si495     1.0  0.57557  0.05740  0.47990  1.0000
  Si  Si496     1.0  0.57557  0.10927  0.47990  1.0000
  Si  Si497     1.0  0.46050  0.10930  0.25915  1.0000
  Si  Si498     1.0  0.46050  0.05737  0.25915  1.0000
  Si  Si499     1.0  0.62717  0.05737  0.49085  1.0000
  Si  Si500     1.0  0.62717  0.10930  0.49085  1.0000
  Si  Si501     1.0  0.47810  0.12647  0.15435  1.0000
  Si  Si502     1.0  0.47810  0.04020  0.15435  1.0000
  Si  Si503     1.0  0.64477  0.04020  0.09565  1.0000
  Si  Si504     1.0  0.64477  0.12647  0.09565  1.0000
  Si  Si505     1.0  0.43510  0.10960  0.10460  1.0000
  Si  Si506     1.0  0.43510  0.05707  0.10460  1.0000
  Si  Si507     1.0  0.60177  0.05707  0.14540  1.0000
  Si  Si508     1.0  0.60177  0.10960  0.14540  1.0000
  O   O1053     1.0  0.50040  0.02330  0.85090  1.0000
  O   O1054     1.0  0.66627  0.18997  0.60090  1.0000
  O   O1055     1.0  0.50040  0.14337  0.85090  1.0000
  O   O1056     1.0  0.33373  0.14337  0.89910  1.0000
  O   O1057     1.0  0.33373  0.02330  0.89910  1.0000
  O   O1058     1.0  0.46250  0.02477  0.90040  1.0000
  O   O1059     1.0  0.37083  0.19143  0.65040  1.0000
  O   O1060     1.0  0.46250  0.14190  0.90040  1.0000
  O   O1061     1.0  0.62917  0.14190  0.84960  1.0000
  O   O1062     1.0  0.62917  0.02477  0.84960  1.0000
  O   O1063     1.0  0.46650  0.04553  0.81255  1.0000
  O   O1064     1.0  0.36683  0.21220  0.56255  1.0000
  O   O1065     1.0  0.46650  0.12113  0.81255  1.0000
  O   O1066     1.0  0.63317  0.12113  0.93745  1.0000
  O   O1067     1.0  0.63317  0.04553  0.93745  1.0000
  O   O1068     1.0  0.46573  0.00113  0.81630  1.0000
  O   O1069     1.0  0.36760  0.16780  0.56630  1.0000
  O   O1070     1.0  0.46573  0.16553  0.81630  1.0000
  O   O1071     1.0  0.63240  0.16553  0.93370  1.0000
  O   O1072     1.0  0.53427  0.16780  0.68370  1.0000
  O   O1073     1.0  0.63240  0.00113  0.93370  1.0000
  O   O1074     1.0  0.44300  0.01283  0.98610  1.0000
  O   O1075     1.0  0.39033  0.17950  0.73610  1.0000
  O   O1076     1.0  0.44300  0.15383  0.98610  1.0000
  O   O1077     1.0  0.60967  0.15383  0.76390  1.0000
  O   O1078     1.0  0.60967  0.01283  0.76390  1.0000
  O   O1079     1.0  0.39010  0.15183  0.65775  1.0000
  O   O1080     1.0  0.44323  0.18150  0.90775  1.0000
  O   O1081     1.0  0.39010  0.01483  0.65775  1.0000
  O   O1082     1.0  0.55677  0.01483  0.59225  1.0000
  O   O1083     1.0  0.60990  0.18150  0.84225  1.0000
  O   O1084     1.0  0.55677  0.15183  0.59225  1.0000
  O   O1085     1.0  0.41903  0.02210  0.90530  1.0000
  O   O1086     1.0  0.41430  0.18877  0.65530  1.0000
  O   O1087     1.0  0.41903  0.14457  0.90530  1.0000
  O   O1088     1.0  0.58570  0.14457  0.84470  1.0000
  O   O1089     1.0  0.58570  0.02210  0.84470  1.0000
  O   O1090     1.0  0.43033  0.04320  0.55300  1.0000
  O   O1091     1.0  0.43033  0.12347  0.55300  1.0000
  O   O1092     1.0  0.59700  0.12347  0.69700  1.0000
  O   O1093     1.0  0.59700  0.04320  0.69700  1.0000
  O   O1094     1.0  0.40113  0.01517  0.51375  1.0000
  O   O1095     1.0  0.40113  0.15150  0.51375  1.0000
  O   O1096     1.0  0.56780  0.15150  0.73625  1.0000
  O   O1097     1.0  0.59887  0.18183  0.98625  1.0000
  O   O1098     1.0  0.56780  0.01517  0.73625  1.0000
  O   O1099     1.0  0.43120  0.00033  0.57820  1.0000
  O   O1100     1.0  0.40213  0.16700  0.82820  1.0000
  O   O1101     1.0  0.43120  0.16633  0.57820  1.0000
  O   O1102     1.0  0.59787  0.16633  0.67180  1.0000
  O   O1103     1.0  0.56880  0.16700  0.92180  1.0000
  O   O1104     1.0  0.59787  0.00033  0.67180  1.0000
  O   O1105     1.0  0.36917  0.04217  0.54415  1.0000
  O   O1106     1.0  0.36917  0.12450  0.54415  1.0000
  O   O1107     1.0  0.53583  0.12450  0.70585  1.0000
  O   O1108     1.0  0.63083  0.20883  0.95585  1.0000
  O   O1109     1.0  0.53583  0.04217  0.70585  1.0000
  O   O1110     1.0  0.36153  0.01233  0.97215  1.0000
  O   O1111     1.0  0.36153  0.15433  0.97215  1.0000
  O   O1112     1.0  0.52820  0.15433  0.77785  1.0000
  O   O1113     1.0  0.63847  0.17900  0.52785  1.0000
  O   O1114     1.0  0.52820  0.01233  0.77785  1.0000
  O   O1115     1.0  0.37670  0.02603  0.88350  1.0000
  O   O1116     1.0  0.37670  0.14063  0.88350  1.0000
  O   O1117     1.0  0.54337  0.14063  0.86650  1.0000
  O   O1118     1.0  0.62330  0.19270  0.61650  1.0000
  O   O1119     1.0  0.54337  0.02603  0.86650  1.0000
  O   O1120     1.0  0.47573  0.15297  0.64160  1.0000
  O   O1121     1.0  0.35760  0.18037  0.89160  1.0000
  O   O1122     1.0  0.47573  0.01370  0.64160  1.0000
  O   O1123     1.0  0.64240  0.01370  0.60840  1.0000
  O   O1124     1.0  0.52427  0.18037  0.85840  1.0000
  O   O1125     1.0  0.64240  0.15297  0.60840  1.0000
  O   O1126     1.0  0.40670  0.04377  0.82280  1.0000
  O   O1127     1.0  0.40670  0.12290  0.82280  1.0000
  O   O1128     1.0  0.57337  0.12290  0.92720  1.0000
  O   O1129     1.0  0.57337  0.04377  0.92720  1.0000
  O   O1130     1.0  0.33630  0.11827  0.60845  1.0000
  O   O1131     1.0  0.33630  0.04840  0.60845  1.0000
  O   O1132     1.0  0.50297  0.04840  0.64155  1.0000
  O   O1133     1.0  0.66370  0.21507  0.89155  1.0000
  O   O1134     1.0  0.50297  0.11827  0.64155  1.0000
  O   O1135     1.0  0.37730  0.11037  0.63715  1.0000
  O   O1136     1.0  0.37730  0.05630  0.63715  1.0000
  O   O1137     1.0  0.54397  0.05630  0.61285  1.0000
  O   O1138     1.0  0.54397  0.11037  0.61285  1.0000
  O   O1139     1.0  0.35790  0.08333  0.57155  1.0000
  O   O1140     1.0  0.52457  0.08333  0.67845  1.0000
  O   O1141     1.0  0.39277  0.12037  0.72805  1.0000
  O   O1142     1.0  0.39277  0.04630  0.72805  1.0000
  O   O1143     1.0  0.55943  0.04630  0.52195  1.0000
  O   O1144     1.0  0.55943  0.12037  0.52195  1.0000
  O   O1145     1.0  0.41967  0.11940  0.64950  1.0000
  O   O1146     1.0  0.41967  0.04727  0.64950  1.0000
  O   O1147     1.0  0.58633  0.04727  0.60050  1.0000
  O   O1148     1.0  0.58633  0.11940  0.60050  1.0000
  O   O1149     1.0  0.40190  0.08333  0.77895  1.0000
  O   O1150     1.0  0.56857  0.08333  0.97105  1.0000
  O   O1151     1.0  0.43413  0.11043  0.75015  1.0000
  O   O1152     1.0  0.43413  0.05623  0.75015  1.0000
  O   O1153     1.0  0.60080  0.05623  0.99985  1.0000
  O   O1154     1.0  0.60080  0.11043  0.99985  1.0000
  O   O1155     1.0  0.46840  0.08333  0.76025  1.0000
  O   O1156     1.0  0.63507  0.08333  0.98975  1.0000
  O   O1157     1.0  0.47303  0.12233  0.71375  1.0000
  O   O1158     1.0  0.47303  0.04433  0.71375  1.0000
  O   O1159     1.0  0.63970  0.04433  0.53625  1.0000
  O   O1160     1.0  0.63970  0.12233  0.53625  1.0000
  O   O1161     1.0  0.46077  0.11233  0.62030  1.0000
  O   O1162     1.0  0.46077  0.05433  0.62030  1.0000
  O   O1163     1.0  0.62743  0.05433  0.62970  1.0000
  O   O1164     1.0  0.62743  0.11233  0.62970  1.0000
  O   O1165     1.0  0.42947  0.08333  0.59565  1.0000
  O   O1166     1.0  0.59613  0.08333  0.65435  1.0000
  Si  Si509     1.0  0.47380  0.02370  0.84490  1.0000
  Si  Si510     1.0  0.35953  0.19037  0.59490  1.0000
  Si  Si511     1.0  0.47380  0.14297  0.84490  1.0000
  Si  Si512     1.0  0.64047  0.14297  0.90510  1.0000
  Si  Si513     1.0  0.64047  0.02370  0.90510  1.0000
  Si  Si514     1.0  0.44197  0.01120  0.92500  1.0000
  Si  Si515     1.0  0.39137  0.17787  0.67500  1.0000
  Si  Si516     1.0  0.44197  0.15547  0.92500  1.0000
  Si  Si517     1.0  0.60863  0.15547  0.82500  1.0000
  Si  Si518     1.0  0.60863  0.01120  0.82500  1.0000
  Si  Si519     1.0  0.42640  0.01787  0.53275  1.0000
  Si  Si520     1.0  0.42640  0.14880  0.53275  1.0000
  Si  Si521     1.0  0.59307  0.14880  0.71725  1.0000
  Si  Si522     1.0  0.59307  0.01787  0.71725  1.0000
  Si  Si523     1.0  0.37487  0.01713  0.52405  1.0000
  Si  Si524     1.0  0.37487  0.14953  0.52405  1.0000
  Si  Si525     1.0  0.54153  0.14953  0.72595  1.0000
  Si  Si526     1.0  0.62513  0.18380  0.97595  1.0000
  Si  Si527     1.0  0.54153  0.01713  0.72595  1.0000
  Si  Si528     1.0  0.35737  0.01200  0.91165  1.0000
  Si  Si529     1.0  0.35737  0.15467  0.91165  1.0000
  Si  Si530     1.0  0.52403  0.15467  0.83835  1.0000
  Si  Si531     1.0  0.64263  0.17867  0.58835  1.0000
  Si  Si532     1.0  0.52403  0.01200  0.83835  1.0000
  Si  Si533     1.0  0.40113  0.02290  0.85985  1.0000
  Si  Si534     1.0  0.40113  0.14377  0.85985  1.0000
  Si  Si535     1.0  0.56780  0.14377  0.89015  1.0000
  Si  Si536     1.0  0.56780  0.02290  0.89015  1.0000
  Si  Si537     1.0  0.36017  0.10913  0.59025  1.0000
  Si  Si538     1.0  0.36017  0.05753  0.59025  1.0000
  Si  Si539     1.0  0.52683  0.05753  0.65975  1.0000
  Si  Si540     1.0  0.52683  0.10913  0.65975  1.0000
  Si  Si541     1.0  0.39493  0.12550  0.66805  1.0000
  Si  Si542     1.0  0.39493  0.04117  0.66805  1.0000
  Si  Si543     1.0  0.56160  0.04117  0.58195  1.0000
  Si  Si544     1.0  0.56160  0.12550  0.58195  1.0000
  Si  Si545     1.0  0.40890  0.10927  0.77010  1.0000
  Si  Si546     1.0  0.40890  0.05740  0.77010  1.0000
  Si  Si547     1.0  0.57557  0.05740  0.97990  1.0000
  Si  Si548     1.0  0.57557  0.10927  0.97990  1.0000
  Si  Si549     1.0  0.46050  0.10930  0.75915  1.0000
  Si  Si550     1.0  0.46050  0.05737  0.75915  1.0000
  Si  Si551     1.0  0.62717  0.05737  0.99085  1.0000
  Si  Si552     1.0  0.62717  0.10930  0.99085  1.0000
  Si  Si553     1.0  0.47810  0.12647  0.65435  1.0000
  Si  Si554     1.0  0.47810  0.04020  0.65435  1.0000
  Si  Si555     1.0  0.64477  0.04020  0.59565  1.0000
  Si  Si556     1.0  0.64477  0.12647  0.59565  1.0000
  Si  Si557     1.0  0.43510  0.10960  0.60460  1.0000
  Si  Si558     1.0  0.43510  0.05707  0.60460  1.0000
  Si  Si559     1.0  0.60177  0.05707  0.64540  1.0000
  Si  Si560     1.0  0.60177  0.10960  0.64540  1.0000
  O   O1167     1.0  0.66627  0.85663  0.10090  1.0000
  O   O1168     1.0  0.66627  0.97670  0.10090  1.0000
  O   O1169     1.0  0.49960  0.97670  0.14910  1.0000
  O   O1170     1.0  0.33373  0.81003  0.39910  1.0000
  O   O1171     1.0  0.49960  0.85663  0.14910  1.0000
  O   O1172     1.0  0.37083  0.85810  0.15040  1.0000
  O   O1173     1.0  0.37083  0.97523  0.15040  1.0000
  O   O1174     1.0  0.53750  0.97523  0.09960  1.0000
  O   O1175     1.0  0.62917  0.80857  0.34960  1.0000
  O   O1176     1.0  0.53750  0.85810  0.09960  1.0000
  O   O1177     1.0  0.36683  0.87887  0.06255  1.0000
  O   O1178     1.0  0.36683  0.95447  0.06255  1.0000
  O   O1179     1.0  0.53350  0.95447  0.18745  1.0000
  O   O1180     1.0  0.63317  0.78780  0.43745  1.0000
  O   O1181     1.0  0.53350  0.87887  0.18745  1.0000
  O   O1182     1.0  0.36760  0.83447  0.06630  1.0000
  O   O1183     1.0  0.46573  0.83220  0.31630  1.0000
  O   O1184     1.0  0.36760  0.99887  0.06630  1.0000
  O   O1185     1.0  0.53427  0.99887  0.18370  1.0000
  O   O1186     1.0  0.63240  0.83220  0.43370  1.0000
  O   O1187     1.0  0.53427  0.83447  0.18370  1.0000
  O   O1188     1.0  0.39033  0.84617  0.23610  1.0000
  O   O1189     1.0  0.39033  0.98717  0.23610  1.0000
  O   O1190     1.0  0.55700  0.98717  0.01390  1.0000
  O   O1191     1.0  0.60967  0.82050  0.26390  1.0000
  O   O1192     1.0  0.55700  0.84617  0.01390  1.0000
  O   O1193     1.0  0.44323  0.98517  0.40775  1.0000
  O   O1194     1.0  0.39010  0.81850  0.15775  1.0000
  O   O1195     1.0  0.44323  0.84817  0.40775  1.0000
  O   O1196     1.0  0.60990  0.84817  0.34225  1.0000
  O   O1197     1.0  0.55677  0.81850  0.09225  1.0000
  O   O1198     1.0  0.60990  0.98517  0.34225  1.0000
  O   O1199     1.0  0.41430  0.85543  0.15530  1.0000
  O   O1200     1.0  0.41430  0.97790  0.15530  1.0000
  O   O1201     1.0  0.58097  0.97790  0.09470  1.0000
  O   O1202     1.0  0.58570  0.81123  0.34470  1.0000
  O   O1203     1.0  0.58097  0.85543  0.09470  1.0000
  O   O1204     1.0  0.40300  0.87653  0.30300  1.0000
  O   O1205     1.0  0.40300  0.95680  0.30300  1.0000
  O   O1206     1.0  0.56967  0.95680  0.44700  1.0000
  O   O1207     1.0  0.56967  0.87653  0.44700  1.0000
  O   O1208     1.0  0.43220  0.84850  0.26375  1.0000
  O   O1209     1.0  0.40113  0.81817  0.01375  1.0000
  O   O1210     1.0  0.43220  0.98483  0.26375  1.0000
  O   O1211     1.0  0.59887  0.98483  0.48625  1.0000
  O   O1212     1.0  0.59887  0.84850  0.48625  1.0000
  O   O1213     1.0  0.40213  0.83367  0.32820  1.0000
  O   O1214     1.0  0.43120  0.83300  0.07820  1.0000
  O   O1215     1.0  0.40213  0.99967  0.32820  1.0000
  O   O1216     1.0  0.56880  0.99967  0.42180  1.0000
  O   O1217     1.0  0.59787  0.83300  0.17180  1.0000
  O   O1218     1.0  0.56880  0.83367  0.42180  1.0000
  O   O1219     1.0  0.46417  0.87550  0.29415  1.0000
  O   O1220     1.0  0.36917  0.79117  0.04415  1.0000
  O   O1221     1.0  0.46417  0.95783  0.29415  1.0000
  O   O1222     1.0  0.63083  0.95783  0.45585  1.0000
  O   O1223     1.0  0.63083  0.87550  0.45585  1.0000
  O   O1224     1.0  0.47180  0.84567  0.22215  1.0000
  O   O1225     1.0  0.36153  0.82100  0.47215  1.0000
  O   O1226     1.0  0.47180  0.98767  0.22215  1.0000
  O   O1227     1.0  0.63847  0.98767  0.02785  1.0000
  O   O1228     1.0  0.63847  0.84567  0.02785  1.0000
  O   O1229     1.0  0.45663  0.85937  0.13350  1.0000
  O   O1230     1.0  0.37670  0.80730  0.38350  1.0000
  O   O1231     1.0  0.45663  0.97397  0.13350  1.0000
  O   O1232     1.0  0.62330  0.97397  0.11650  1.0000
  O   O1233     1.0  0.62330  0.85937  0.11650  1.0000
  O   O1234     1.0  0.35760  0.98630  0.39160  1.0000
  O   O1235     1.0  0.47573  0.81963  0.14160  1.0000
  O   O1236     1.0  0.35760  0.84703  0.39160  1.0000
  O   O1237     1.0  0.52427  0.84703  0.35840  1.0000
  O   O1238     1.0  0.64240  0.81963  0.10840  1.0000
  O   O1239     1.0  0.52427  0.98630  0.35840  1.0000
  O   O1240     1.0  0.42663  0.87710  0.07280  1.0000
  O   O1241     1.0  0.42663  0.95623  0.07280  1.0000
  O   O1242     1.0  0.59330  0.95623  0.17720  1.0000
  O   O1243     1.0  0.59330  0.87710  0.17720  1.0000
  O   O1244     1.0  0.49703  0.95160  0.35845  1.0000
  O   O1245     1.0  0.33630  0.78493  0.10845  1.0000
  O   O1246     1.0  0.49703  0.88173  0.35845  1.0000
  O   O1247     1.0  0.66370  0.88173  0.39155  1.0000
  O   O1248     1.0  0.66370  0.95160  0.39155  1.0000
  O   O1249     1.0  0.45603  0.94370  0.38715  1.0000
  O   O1250     1.0  0.45603  0.88963  0.38715  1.0000
  O   O1251     1.0  0.62270  0.88963  0.36285  1.0000
  O   O1252     1.0  0.62270  0.94370  0.36285  1.0000
  O   O1253     1.0  0.47543  0.91667  0.32155  1.0000
  O   O1254     1.0  0.64210  0.91667  0.42845  1.0000
  O   O1255     1.0  0.44057  0.95370  0.47805  1.0000
  O   O1256     1.0  0.44057  0.87963  0.47805  1.0000
  O   O1257     1.0  0.60723  0.87963  0.27195  1.0000
  O   O1258     1.0  0.60723  0.95370  0.27195  1.0000
  O   O1259     1.0  0.41367  0.95273  0.39950  1.0000
  O   O1260     1.0  0.41367  0.88060  0.39950  1.0000
  O   O1261     1.0  0.58033  0.88060  0.35050  1.0000
  O   O1262     1.0  0.58033  0.95273  0.35050  1.0000
  O   O1263     1.0  0.43143  0.91667  0.02895  1.0000
  O   O1264     1.0  0.59810  0.91667  0.22105  1.0000
  O   O1265     1.0  0.39920  0.94377  0.00015  1.0000
  O   O1266     1.0  0.39920  0.88957  0.00015  1.0000
  O   O1267     1.0  0.56587  0.88957  0.24985  1.0000
  O   O1268     1.0  0.56587  0.94377  0.24985  1.0000
  O   O1269     1.0  0.36493  0.91667  0.01025  1.0000
  O   O1270     1.0  0.53160  0.91667  0.23975  1.0000
  O   O1271     1.0  0.36030  0.95567  0.46375  1.0000
  O   O1272     1.0  0.36030  0.87767  0.46375  1.0000
  O   O1273     1.0  0.52697  0.87767  0.28625  1.0000
  O   O1274     1.0  0.52697  0.95567  0.28625  1.0000
  O   O1275     1.0  0.37257  0.94567  0.37030  1.0000
  O   O1276     1.0  0.37257  0.88767  0.37030  1.0000
  O   O1277     1.0  0.53923  0.88767  0.37970  1.0000
  O   O1278     1.0  0.53923  0.94567  0.37970  1.0000
  O   O1279     1.0  0.40387  0.91667  0.34565  1.0000
  O   O1280     1.0  0.57053  0.91667  0.40435  1.0000
  Si  Si561     1.0  0.35953  0.85703  0.09490  1.0000
  Si  Si562     1.0  0.35953  0.97630  0.09490  1.0000
  Si  Si563     1.0  0.52620  0.97630  0.15510  1.0000
  Si  Si564     1.0  0.64047  0.80963  0.40510  1.0000
  Si  Si565     1.0  0.52620  0.85703  0.15510  1.0000
  Si  Si566     1.0  0.39137  0.84453  0.17500  1.0000
  Si  Si567     1.0  0.39137  0.98880  0.17500  1.0000
  Si  Si568     1.0  0.55803  0.98880  0.07500  1.0000
  Si  Si569     1.0  0.60863  0.82213  0.32500  1.0000
  Si  Si570     1.0  0.55803  0.84453  0.07500  1.0000
  Si  Si571     1.0  0.40693  0.85120  0.28275  1.0000
  Si  Si572     1.0  0.40693  0.98213  0.28275  1.0000
  Si  Si573     1.0  0.57360  0.98213  0.46725  1.0000
  Si  Si574     1.0  0.57360  0.85120  0.46725  1.0000
  Si  Si575     1.0  0.45847  0.85047  0.27405  1.0000
  Si  Si576     1.0  0.37487  0.81620  0.02405  1.0000
  Si  Si577     1.0  0.45847  0.98287  0.27405  1.0000
  Si  Si578     1.0  0.62513  0.98287  0.47595  1.0000
  Si  Si579     1.0  0.62513  0.85047  0.47595  1.0000
  Si  Si580     1.0  0.47597  0.84533  0.16165  1.0000
  Si  Si581     1.0  0.35737  0.82133  0.41165  1.0000
  Si  Si582     1.0  0.47597  0.98800  0.16165  1.0000
  Si  Si583     1.0  0.64263  0.98800  0.08835  1.0000
  Si  Si584     1.0  0.64263  0.84533  0.08835  1.0000
  Si  Si585     1.0  0.43220  0.85623  0.10985  1.0000
  Si  Si586     1.0  0.43220  0.97710  0.10985  1.0000
  Si  Si587     1.0  0.59887  0.97710  0.14015  1.0000
  Si  Si588     1.0  0.59887  0.85623  0.14015  1.0000
  Si  Si589     1.0  0.47317  0.94247  0.34025  1.0000
  Si  Si590     1.0  0.47317  0.89087  0.34025  1.0000
  Si  Si591     1.0  0.63983  0.89087  0.40975  1.0000
  Si  Si592     1.0  0.63983  0.94247  0.40975  1.0000
  Si  Si593     1.0  0.43840  0.95883  0.41805  1.0000
  Si  Si594     1.0  0.43840  0.87450  0.41805  1.0000
  Si  Si595     1.0  0.60507  0.87450  0.33195  1.0000
  Si  Si596     1.0  0.60507  0.95883  0.33195  1.0000
  Si  Si597     1.0  0.42443  0.94260  0.02010  1.0000
  Si  Si598     1.0  0.42443  0.89073  0.02010  1.0000
  Si  Si599     1.0  0.59110  0.89073  0.22990  1.0000
  Si  Si600     1.0  0.59110  0.94260  0.22990  1.0000
  Si  Si601     1.0  0.37283  0.94263  0.00915  1.0000
  Si  Si602     1.0  0.37283  0.89070  0.00915  1.0000
  Si  Si603     1.0  0.53950  0.89070  0.24085  1.0000
  Si  Si604     1.0  0.53950  0.94263  0.24085  1.0000
  Si  Si605     1.0  0.35523  0.95980  0.40435  1.0000
  Si  Si606     1.0  0.35523  0.87353  0.40435  1.0000
  Si  Si607     1.0  0.52190  0.87353  0.34565  1.0000
  Si  Si608     1.0  0.52190  0.95980  0.34565  1.0000
  Si  Si609     1.0  0.39823  0.94293  0.35460  1.0000
  Si  Si610     1.0  0.39823  0.89040  0.35460  1.0000
  Si  Si611     1.0  0.56490  0.89040  0.39540  1.0000
  Si  Si612     1.0  0.56490  0.94293  0.39540  1.0000
  O   O1281     1.0  0.66627  0.85663  0.60090  1.0000
  O   O1282     1.0  0.66627  0.97670  0.60090  1.0000
  O   O1283     1.0  0.49960  0.97670  0.64910  1.0000
  O   O1284     1.0  0.33373  0.81003  0.89910  1.0000
  O   O1285     1.0  0.49960  0.85663  0.64910  1.0000
  O   O1286     1.0  0.37083  0.85810  0.65040  1.0000
  O   O1287     1.0  0.37083  0.97523  0.65040  1.0000
  O   O1288     1.0  0.53750  0.97523  0.59960  1.0000
  O   O1289     1.0  0.62917  0.80857  0.84960  1.0000
  O   O1290     1.0  0.53750  0.85810  0.59960  1.0000
  O   O1291     1.0  0.36683  0.87887  0.56255  1.0000
  O   O1292     1.0  0.36683  0.95447  0.56255  1.0000
  O   O1293     1.0  0.53350  0.95447  0.68745  1.0000
  O   O1294     1.0  0.63317  0.78780  0.93745  1.0000
  O   O1295     1.0  0.53350  0.87887  0.68745  1.0000
  O   O1296     1.0  0.36760  0.83447  0.56630  1.0000
  O   O1297     1.0  0.46573  0.83220  0.81630  1.0000
  O   O1298     1.0  0.36760  0.99887  0.56630  1.0000
  O   O1299     1.0  0.53427  0.99887  0.68370  1.0000
  O   O1300     1.0  0.63240  0.83220  0.93370  1.0000
  O   O1301     1.0  0.53427  0.83447  0.68370  1.0000
  O   O1302     1.0  0.39033  0.84617  0.73610  1.0000
  O   O1303     1.0  0.39033  0.98717  0.73610  1.0000
  O   O1304     1.0  0.55700  0.98717  0.51390  1.0000
  O   O1305     1.0  0.60967  0.82050  0.76390  1.0000
  O   O1306     1.0  0.55700  0.84617  0.51390  1.0000
  O   O1307     1.0  0.44323  0.98517  0.90775  1.0000
  O   O1308     1.0  0.39010  0.81850  0.65775  1.0000
  O   O1309     1.0  0.44323  0.84817  0.90775  1.0000
  O   O1310     1.0  0.60990  0.84817  0.84225  1.0000
  O   O1311     1.0  0.55677  0.81850  0.59225  1.0000
  O   O1312     1.0  0.60990  0.98517  0.84225  1.0000
  O   O1313     1.0  0.41430  0.85543  0.65530  1.0000
  O   O1314     1.0  0.41430  0.97790  0.65530  1.0000
  O   O1315     1.0  0.58097  0.97790  0.59470  1.0000
  O   O1316     1.0  0.58570  0.81123  0.84470  1.0000
  O   O1317     1.0  0.58097  0.85543  0.59470  1.0000
  O   O1318     1.0  0.40300  0.87653  0.80300  1.0000
  O   O1319     1.0  0.40300  0.95680  0.80300  1.0000
  O   O1320     1.0  0.56967  0.95680  0.94700  1.0000
  O   O1321     1.0  0.56967  0.87653  0.94700  1.0000
  O   O1322     1.0  0.43220  0.84850  0.76375  1.0000
  O   O1323     1.0  0.40113  0.81817  0.51375  1.0000
  O   O1324     1.0  0.43220  0.98483  0.76375  1.0000
  O   O1325     1.0  0.59887  0.98483  0.98625  1.0000
  O   O1326     1.0  0.59887  0.84850  0.98625  1.0000
  O   O1327     1.0  0.40213  0.83367  0.82820  1.0000
  O   O1328     1.0  0.43120  0.83300  0.57820  1.0000
  O   O1329     1.0  0.40213  0.99967  0.82820  1.0000
  O   O1330     1.0  0.56880  0.99967  0.92180  1.0000
  O   O1331     1.0  0.59787  0.83300  0.67180  1.0000
  O   O1332     1.0  0.56880  0.83367  0.92180  1.0000
  O   O1333     1.0  0.46417  0.87550  0.79415  1.0000
  O   O1334     1.0  0.36917  0.79117  0.54415  1.0000
  O   O1335     1.0  0.46417  0.95783  0.79415  1.0000
  O   O1336     1.0  0.63083  0.95783  0.95585  1.0000
  O   O1337     1.0  0.63083  0.87550  0.95585  1.0000
  O   O1338     1.0  0.47180  0.84567  0.72215  1.0000
  O   O1339     1.0  0.36153  0.82100  0.97215  1.0000
  O   O1340     1.0  0.47180  0.98767  0.72215  1.0000
  O   O1341     1.0  0.63847  0.98767  0.52785  1.0000
  O   O1342     1.0  0.63847  0.84567  0.52785  1.0000
  O   O1343     1.0  0.45663  0.85937  0.63350  1.0000
  O   O1344     1.0  0.37670  0.80730  0.88350  1.0000
  O   O1345     1.0  0.45663  0.97397  0.63350  1.0000
  O   O1346     1.0  0.62330  0.97397  0.61650  1.0000
  O   O1347     1.0  0.62330  0.85937  0.61650  1.0000
  O   O1348     1.0  0.35760  0.98630  0.89160  1.0000
  O   O1349     1.0  0.47573  0.81963  0.64160  1.0000
  O   O1350     1.0  0.35760  0.84703  0.89160  1.0000
  O   O1351     1.0  0.52427  0.84703  0.85840  1.0000
  O   O1352     1.0  0.64240  0.81963  0.60840  1.0000
  O   O1353     1.0  0.52427  0.98630  0.85840  1.0000
  O   O1354     1.0  0.42663  0.87710  0.57280  1.0000
  O   O1355     1.0  0.42663  0.95623  0.57280  1.0000
  O   O1356     1.0  0.59330  0.95623  0.67720  1.0000
  O   O1357     1.0  0.59330  0.87710  0.67720  1.0000
  O   O1358     1.0  0.49703  0.95160  0.85845  1.0000
  O   O1359     1.0  0.33630  0.78493  0.60845  1.0000
  O   O1360     1.0  0.49703  0.88173  0.85845  1.0000
  O   O1361     1.0  0.66370  0.88173  0.89155  1.0000
  O   O1362     1.0  0.66370  0.95160  0.89155  1.0000
  O   O1363     1.0  0.45603  0.94370  0.88715  1.0000
  O   O1364     1.0  0.45603  0.88963  0.88715  1.0000
  O   O1365     1.0  0.62270  0.88963  0.86285  1.0000
  O   O1366     1.0  0.62270  0.94370  0.86285  1.0000
  O   O1367     1.0  0.47543  0.91667  0.82155  1.0000
  O   O1368     1.0  0.64210  0.91667  0.92845  1.0000
  O   O1369     1.0  0.44057  0.95370  0.97805  1.0000
  O   O1370     1.0  0.44057  0.87963  0.97805  1.0000
  O   O1371     1.0  0.60723  0.87963  0.77195  1.0000
  O   O1372     1.0  0.60723  0.95370  0.77195  1.0000
  O   O1373     1.0  0.41367  0.95273  0.89950  1.0000
  O   O1374     1.0  0.41367  0.88060  0.89950  1.0000
  O   O1375     1.0  0.58033  0.88060  0.85050  1.0000
  O   O1376     1.0  0.58033  0.95273  0.85050  1.0000
  O   O1377     1.0  0.43143  0.91667  0.52895  1.0000
  O   O1378     1.0  0.59810  0.91667  0.72105  1.0000
  O   O1379     1.0  0.39920  0.94377  0.50015  1.0000
  O   O1380     1.0  0.39920  0.88957  0.50015  1.0000
  O   O1381     1.0  0.56587  0.88957  0.74985  1.0000
  O   O1382     1.0  0.56587  0.94377  0.74985  1.0000
  O   O1383     1.0  0.36493  0.91667  0.51025  1.0000
  O   O1384     1.0  0.53160  0.91667  0.73975  1.0000
  O   O1385     1.0  0.36030  0.95567  0.96375  1.0000
  O   O1386     1.0  0.36030  0.87767  0.96375  1.0000
  O   O1387     1.0  0.52697  0.87767  0.78625  1.0000
  O   O1388     1.0  0.52697  0.95567  0.78625  1.0000
  O   O1389     1.0  0.37257  0.94567  0.87030  1.0000
  O   O1390     1.0  0.37257  0.88767  0.87030  1.0000
  O   O1391     1.0  0.53923  0.88767  0.87970  1.0000
  O   O1392     1.0  0.53923  0.94567  0.87970  1.0000
  O   O1393     1.0  0.40387  0.91667  0.84565  1.0000
  O   O1394     1.0  0.57053  0.91667  0.90435  1.0000
  Si  Si613     1.0  0.35953  0.85703  0.59490  1.0000
  Si  Si614     1.0  0.35953  0.97630  0.59490  1.0000
  Si  Si615     1.0  0.52620  0.97630  0.65510  1.0000
  Si  Si616     1.0  0.64047  0.80963  0.90510  1.0000
  Si  Si617     1.0  0.52620  0.85703  0.65510  1.0000
  Si  Si618     1.0  0.39137  0.84453  0.67500  1.0000
  Si  Si619     1.0  0.39137  0.98880  0.67500  1.0000
  Si  Si620     1.0  0.55803  0.98880  0.57500  1.0000
  Si  Si621     1.0  0.60863  0.82213  0.82500  1.0000
  Si  Si622     1.0  0.55803  0.84453  0.57500  1.0000
  Si  Si623     1.0  0.40693  0.85120  0.78275  1.0000
  Si  Si624     1.0  0.40693  0.98213  0.78275  1.0000
  Si  Si625     1.0  0.57360  0.98213  0.96725  1.0000
  Si  Si626     1.0  0.57360  0.85120  0.96725  1.0000
  Si  Si627     1.0  0.45847  0.85047  0.77405  1.0000
  Si  Si628     1.0  0.37487  0.81620  0.52405  1.0000
  Si  Si629     1.0  0.45847  0.98287  0.77405  1.0000
  Si  Si630     1.0  0.62513  0.98287  0.97595  1.0000
  Si  Si631     1.0  0.62513  0.85047  0.97595  1.0000
  Si  Si632     1.0  0.47597  0.84533  0.66165  1.0000
  Si  Si633     1.0  0.35737  0.82133  0.91165  1.0000
  Si  Si634     1.0  0.47597  0.98800  0.66165  1.0000
  Si  Si635     1.0  0.64263  0.98800  0.58835  1.0000
  Si  Si636     1.0  0.64263  0.84533  0.58835  1.0000
  Si  Si637     1.0  0.43220  0.85623  0.60985  1.0000
  Si  Si638     1.0  0.43220  0.97710  0.60985  1.0000
  Si  Si639     1.0  0.59887  0.97710  0.64015  1.0000
  Si  Si640     1.0  0.59887  0.85623  0.64015  1.0000
  Si  Si641     1.0  0.47317  0.94247  0.84025  1.0000
  Si  Si642     1.0  0.47317  0.89087  0.84025  1.0000
  Si  Si643     1.0  0.63983  0.89087  0.90975  1.0000
  Si  Si644     1.0  0.63983  0.94247  0.90975  1.0000
  Si  Si645     1.0  0.43840  0.95883  0.91805  1.0000
  Si  Si646     1.0  0.43840  0.87450  0.91805  1.0000
  Si  Si647     1.0  0.60507  0.87450  0.83195  1.0000
  Si  Si648     1.0  0.60507  0.95883  0.83195  1.0000
  Si  Si649     1.0  0.42443  0.94260  0.52010  1.0000
  Si  Si650     1.0  0.42443  0.89073  0.52010  1.0000
  Si  Si651     1.0  0.59110  0.89073  0.72990  1.0000
  Si  Si652     1.0  0.59110  0.94260  0.72990  1.0000
  Si  Si653     1.0  0.37283  0.94263  0.50915  1.0000
  Si  Si654     1.0  0.37283  0.89070  0.50915  1.0000
  Si  Si655     1.0  0.53950  0.89070  0.74085  1.0000
  Si  Si656     1.0  0.53950  0.94263  0.74085  1.0000
  Si  Si657     1.0  0.35523  0.95980  0.90435  1.0000
  Si  Si658     1.0  0.35523  0.87353  0.90435  1.0000
  Si  Si659     1.0  0.52190  0.87353  0.84565  1.0000
  Si  Si660     1.0  0.52190  0.95980  0.84565  1.0000
  Si  Si661     1.0  0.39823  0.94293  0.85460  1.0000
  Si  Si662     1.0  0.39823  0.89040  0.85460  1.0000
  Si  Si663     1.0  0.56490  0.89040  0.89540  1.0000
  Si  Si664     1.0  0.56490  0.94293  0.89540  1.0000
  O   O1395     1.0  0.83373  0.02330  0.35090  1.0000
  O   O1396     1.0  0.99960  0.18997  0.10090  1.0000
  O   O1397     1.0  0.83373  0.14337  0.35090  1.0000
  O   O1398     1.0  0.99960  0.31003  0.10090  1.0000
  O   O1399     1.0  0.83293  0.31003  0.14910  1.0000
  O   O1400     1.0  0.66707  0.14337  0.39910  1.0000
  O   O1401     1.0  0.83293  0.18997  0.14910  1.0000
  O   O1402     1.0  0.66707  0.02330  0.39910  1.0000
  O   O1403     1.0  0.79583  0.02477  0.40040  1.0000
  O   O1404     1.0  0.70417  0.19143  0.15040  1.0000
  O   O1405     1.0  0.79583  0.14190  0.40040  1.0000
  O   O1406     1.0  0.87083  0.30857  0.09960  1.0000
  O   O1407     1.0  0.96250  0.14190  0.34960  1.0000
  O   O1408     1.0  0.87083  0.19143  0.09960  1.0000
  O   O1409     1.0  0.96250  0.02477  0.34960  1.0000
  O   O1410     1.0  0.79983  0.04553  0.31255  1.0000
  O   O1411     1.0  0.70017  0.21220  0.06255  1.0000
  O   O1412     1.0  0.79983  0.12113  0.31255  1.0000
  O   O1413     1.0  0.86683  0.28780  0.18745  1.0000
  O   O1414     1.0  0.96650  0.12113  0.43745  1.0000
  O   O1415     1.0  0.86683  0.21220  0.18745  1.0000
  O   O1416     1.0  0.96650  0.04553  0.43745  1.0000
  O   O1417     1.0  0.79907  0.00113  0.31630  1.0000
  O   O1418     1.0  0.70093  0.16780  0.06630  1.0000
  O   O1419     1.0  0.79907  0.16553  0.31630  1.0000
  O   O1420     1.0  0.86760  0.33220  0.18370  1.0000
  O   O1421     1.0  0.96573  0.16553  0.43370  1.0000
  O   O1422     1.0  0.86760  0.16780  0.18370  1.0000
  O   O1423     1.0  0.96573  0.00113  0.43370  1.0000
  O   O1424     1.0  0.77633  0.01283  0.48610  1.0000
  O   O1425     1.0  0.72367  0.17950  0.23610  1.0000
  O   O1426     1.0  0.77633  0.15383  0.48610  1.0000
  O   O1427     1.0  0.89033  0.32050  0.01390  1.0000
  O   O1428     1.0  0.94300  0.15383  0.26390  1.0000
  O   O1429     1.0  0.89033  0.17950  0.01390  1.0000
  O   O1430     1.0  0.94300  0.01283  0.26390  1.0000
  O   O1431     1.0  0.77657  0.31850  0.40775  1.0000
  O   O1432     1.0  0.72343  0.15183  0.15775  1.0000
  O   O1433     1.0  0.77657  0.18150  0.40775  1.0000
  O   O1434     1.0  0.72343  0.01483  0.15775  1.0000
  O   O1435     1.0  0.89010  0.01483  0.09225  1.0000
  O   O1436     1.0  0.94323  0.18150  0.34225  1.0000
  O   O1437     1.0  0.89010  0.15183  0.09225  1.0000
  O   O1438     1.0  0.94323  0.31850  0.34225  1.0000
  O   O1439     1.0  0.75237  0.02210  0.40530  1.0000
  O   O1440     1.0  0.74763  0.18877  0.15530  1.0000
  O   O1441     1.0  0.75237  0.14457  0.40530  1.0000
  O   O1442     1.0  0.91430  0.31123  0.09470  1.0000
  O   O1443     1.0  0.91903  0.14457  0.34470  1.0000
  O   O1444     1.0  0.91430  0.18877  0.09470  1.0000
  O   O1445     1.0  0.91903  0.02210  0.34470  1.0000
  O   O1446     1.0  0.76367  0.04320  0.05300  1.0000
  O   O1447     1.0  0.73633  0.20987  0.30300  1.0000
  O   O1448     1.0  0.76367  0.12347  0.05300  1.0000
  O   O1449     1.0  0.90300  0.29013  0.44700  1.0000
  O   O1450     1.0  0.93033  0.12347  0.19700  1.0000
  O   O1451     1.0  0.90300  0.20987  0.44700  1.0000
  O   O1452     1.0  0.93033  0.04320  0.19700  1.0000
  O   O1453     1.0  0.73447  0.01517  0.01375  1.0000
  O   O1454     1.0  0.76553  0.18183  0.26375  1.0000
  O   O1455     1.0  0.73447  0.15150  0.01375  1.0000
  O   O1456     1.0  0.76553  0.31817  0.26375  1.0000
  O   O1457     1.0  0.93220  0.31817  0.48625  1.0000
  O   O1458     1.0  0.90113  0.15150  0.23625  1.0000
  O   O1459     1.0  0.93220  0.18183  0.48625  1.0000
  O   O1460     1.0  0.90113  0.01517  0.23625  1.0000
  O   O1461     1.0  0.76453  0.00033  0.07820  1.0000
  O   O1462     1.0  0.73547  0.16700  0.32820  1.0000
  O   O1463     1.0  0.76453  0.16633  0.07820  1.0000
  O   O1464     1.0  0.90213  0.33300  0.42180  1.0000
  O   O1465     1.0  0.93120  0.16633  0.17180  1.0000
  O   O1466     1.0  0.90213  0.16700  0.42180  1.0000
  O   O1467     1.0  0.93120  0.00033  0.17180  1.0000
  O   O1468     1.0  0.70250  0.04217  0.04415  1.0000
  O   O1469     1.0  0.79750  0.20883  0.29415  1.0000
  O   O1470     1.0  0.70250  0.12450  0.04415  1.0000
  O   O1471     1.0  0.79750  0.29117  0.29415  1.0000
  O   O1472     1.0  0.96417  0.29117  0.45585  1.0000
  O   O1473     1.0  0.86917  0.12450  0.20585  1.0000
  O   O1474     1.0  0.96417  0.20883  0.45585  1.0000
  O   O1475     1.0  0.86917  0.04217  0.20585  1.0000
  O   O1476     1.0  0.69487  0.01233  0.47215  1.0000
  O   O1477     1.0  0.80513  0.17900  0.22215  1.0000
  O   O1478     1.0  0.69487  0.15433  0.47215  1.0000
  O   O1479     1.0  0.80513  0.32100  0.22215  1.0000
  O   O1480     1.0  0.97180  0.32100  0.02785  1.0000
  O   O1481     1.0  0.86153  0.15433  0.27785  1.0000
  O   O1482     1.0  0.97180  0.17900  0.02785  1.0000
  O   O1483     1.0  0.86153  0.01233  0.27785  1.0000
  O   O1484     1.0  0.71003  0.02603  0.38350  1.0000
  O   O1485     1.0  0.78997  0.19270  0.13350  1.0000
  O   O1486     1.0  0.71003  0.14063  0.38350  1.0000
  O   O1487     1.0  0.78997  0.30730  0.13350  1.0000
  O   O1488     1.0  0.95663  0.30730  0.11650  1.0000
  O   O1489     1.0  0.87670  0.14063  0.36650  1.0000
  O   O1490     1.0  0.95663  0.19270  0.11650  1.0000
  O   O1491     1.0  0.87670  0.02603  0.36650  1.0000
  O   O1492     1.0  0.80907  0.15297  0.14160  1.0000
  O   O1493     1.0  0.69093  0.18037  0.39160  1.0000
  O   O1494     1.0  0.80907  0.01370  0.14160  1.0000
  O   O1495     1.0  0.97573  0.01370  0.10840  1.0000
  O   O1496     1.0  0.85760  0.18037  0.35840  1.0000
  O   O1497     1.0  0.97573  0.15297  0.10840  1.0000
  O   O1498     1.0  0.85760  0.31963  0.35840  1.0000
  O   O1499     1.0  0.74003  0.04377  0.32280  1.0000
  O   O1500     1.0  0.75997  0.21043  0.07280  1.0000
  O   O1501     1.0  0.74003  0.12290  0.32280  1.0000
  O   O1502     1.0  0.75997  0.28957  0.07280  1.0000
  O   O1503     1.0  0.92663  0.28957  0.17720  1.0000
  O   O1504     1.0  0.90670  0.12290  0.42720  1.0000
  O   O1505     1.0  0.92663  0.21043  0.17720  1.0000
  O   O1506     1.0  0.90670  0.04377  0.42720  1.0000
  O   O1507     1.0  0.83037  0.28493  0.35845  1.0000
  O   O1508     1.0  0.66963  0.11827  0.10845  1.0000
  O   O1509     1.0  0.83037  0.21507  0.35845  1.0000
  O   O1510     1.0  0.66963  0.04840  0.10845  1.0000
  O   O1511     1.0  0.83630  0.04840  0.14155  1.0000
  O   O1512     1.0  0.99703  0.21507  0.39155  1.0000
  O   O1513     1.0  0.83630  0.11827  0.14155  1.0000
  O   O1514     1.0  0.99703  0.28493  0.39155  1.0000
  O   O1515     1.0  0.78937  0.27703  0.38715  1.0000
  O   O1516     1.0  0.71063  0.11037  0.13715  1.0000
  O   O1517     1.0  0.78937  0.22297  0.38715  1.0000
  O   O1518     1.0  0.71063  0.05630  0.13715  1.0000
  O   O1519     1.0  0.87730  0.05630  0.11285  1.0000
  O   O1520     1.0  0.95603  0.22297  0.36285  1.0000
  O   O1521     1.0  0.87730  0.11037  0.11285  1.0000
  O   O1522     1.0  0.95603  0.27703  0.36285  1.0000
  O   O1523     1.0  0.80877  0.25000  0.32155  1.0000
  O   O1524     1.0  0.69123  0.08333  0.07155  1.0000
  O   O1525     1.0  0.85790  0.08333  0.17845  1.0000
  O   O1526     1.0  0.97543  0.25000  0.42845  1.0000
  O   O1527     1.0  0.77390  0.28703  0.47805  1.0000
  O   O1528     1.0  0.72610  0.12037  0.22805  1.0000
  O   O1529     1.0  0.77390  0.21297  0.47805  1.0000
  O   O1530     1.0  0.72610  0.04630  0.22805  1.0000
  O   O1531     1.0  0.89277  0.04630  0.02195  1.0000
  O   O1532     1.0  0.94057  0.21297  0.27195  1.0000
  O   O1533     1.0  0.89277  0.12037  0.02195  1.0000
  O   O1534     1.0  0.94057  0.28703  0.27195  1.0000
  O   O1535     1.0  0.74700  0.28607  0.39950  1.0000
  O   O1536     1.0  0.75300  0.11940  0.14950  1.0000
  O   O1537     1.0  0.74700  0.21393  0.39950  1.0000
  O   O1538     1.0  0.75300  0.04727  0.14950  1.0000
  O   O1539     1.0  0.91967  0.04727  0.10050  1.0000
  O   O1540     1.0  0.91367  0.21393  0.35050  1.0000
  O   O1541     1.0  0.91967  0.11940  0.10050  1.0000
  O   O1542     1.0  0.91367  0.28607  0.35050  1.0000
  O   O1543     1.0  0.76477  0.25000  0.02895  1.0000
  O   O1544     1.0  0.73523  0.08333  0.27895  1.0000
  O   O1545     1.0  0.90190  0.08333  0.47105  1.0000
  O   O1546     1.0  0.93143  0.25000  0.22105  1.0000
  O   O1547     1.0  0.73253  0.27710  0.00015  1.0000
  O   O1548     1.0  0.76747  0.11043  0.25015  1.0000
  O   O1549     1.0  0.73253  0.22290  0.00015  1.0000
  O   O1550     1.0  0.76747  0.05623  0.25015  1.0000
  O   O1551     1.0  0.93413  0.05623  0.49985  1.0000
  O   O1552     1.0  0.89920  0.22290  0.24985  1.0000
  O   O1553     1.0  0.93413  0.11043  0.49985  1.0000
  O   O1554     1.0  0.89920  0.27710  0.24985  1.0000
  O   O1555     1.0  0.69827  0.25000  0.01025  1.0000
  O   O1556     1.0  0.80173  0.08333  0.26025  1.0000
  O   O1557     1.0  0.96840  0.08333  0.48975  1.0000
  O   O1558     1.0  0.86493  0.25000  0.23975  1.0000
  O   O1559     1.0  0.80637  0.12233  0.21375  1.0000
  O   O1560     1.0  0.69363  0.21100  0.46375  1.0000
  O   O1561     1.0  0.80637  0.04433  0.21375  1.0000
  O   O1562     1.0  0.97303  0.04433  0.03625  1.0000
  O   O1563     1.0  0.86030  0.21100  0.28625  1.0000
  O   O1564     1.0  0.97303  0.12233  0.03625  1.0000
  O   O1565     1.0  0.86030  0.28900  0.28625  1.0000
  O   O1566     1.0  0.79410  0.11233  0.12030  1.0000
  O   O1567     1.0  0.70590  0.22100  0.37030  1.0000
  O   O1568     1.0  0.79410  0.05433  0.12030  1.0000
  O   O1569     1.0  0.96077  0.05433  0.12970  1.0000
  O   O1570     1.0  0.87257  0.22100  0.37970  1.0000
  O   O1571     1.0  0.96077  0.11233  0.12970  1.0000
  O   O1572     1.0  0.87257  0.27900  0.37970  1.0000
  O   O1573     1.0  0.73720  0.25000  0.34565  1.0000
  O   O1574     1.0  0.76280  0.08333  0.09565  1.0000
  O   O1575     1.0  0.92947  0.08333  0.15435  1.0000
  O   O1576     1.0  0.90387  0.25000  0.40435  1.0000
  Si  Si665     1.0  0.80713  0.02370  0.34490  1.0000
  Si  Si666     1.0  0.69287  0.19037  0.09490  1.0000
  Si  Si667     1.0  0.80713  0.14297  0.34490  1.0000
  Si  Si668     1.0  0.85953  0.30963  0.15510  1.0000
  Si  Si669     1.0  0.97380  0.14297  0.40510  1.0000
  Si  Si670     1.0  0.85953  0.19037  0.15510  1.0000
  Si  Si671     1.0  0.97380  0.02370  0.40510  1.0000
  Si  Si672     1.0  0.77530  0.01120  0.42500  1.0000
  Si  Si673     1.0  0.72470  0.17787  0.17500  1.0000
  Si  Si674     1.0  0.77530  0.15547  0.42500  1.0000
  Si  Si675     1.0  0.89137  0.32213  0.07500  1.0000
  Si  Si676     1.0  0.94197  0.15547  0.32500  1.0000
  Si  Si677     1.0  0.89137  0.17787  0.07500  1.0000
  Si  Si678     1.0  0.94197  0.01120  0.32500  1.0000
  Si  Si679     1.0  0.75973  0.01787  0.03275  1.0000
  Si  Si680     1.0  0.74027  0.18453  0.28275  1.0000
  Si  Si681     1.0  0.75973  0.14880  0.03275  1.0000
  Si  Si682     1.0  0.90693  0.31547  0.46725  1.0000
  Si  Si683     1.0  0.92640  0.14880  0.21725  1.0000
  Si  Si684     1.0  0.90693  0.18453  0.46725  1.0000
  Si  Si685     1.0  0.92640  0.01787  0.21725  1.0000
  Si  Si686     1.0  0.70820  0.01713  0.02405  1.0000
  Si  Si687     1.0  0.79180  0.18380  0.27405  1.0000
  Si  Si688     1.0  0.70820  0.14953  0.02405  1.0000
  Si  Si689     1.0  0.79180  0.31620  0.27405  1.0000
  Si  Si690     1.0  0.95847  0.31620  0.47595  1.0000
  Si  Si691     1.0  0.87487  0.14953  0.22595  1.0000
  Si  Si692     1.0  0.95847  0.18380  0.47595  1.0000
  Si  Si693     1.0  0.87487  0.01713  0.22595  1.0000
  Si  Si694     1.0  0.69070  0.01200  0.41165  1.0000
  Si  Si695     1.0  0.80930  0.17867  0.16165  1.0000
  Si  Si696     1.0  0.69070  0.15467  0.41165  1.0000
  Si  Si697     1.0  0.80930  0.32133  0.16165  1.0000
  Si  Si698     1.0  0.97597  0.32133  0.08835  1.0000
  Si  Si699     1.0  0.85737  0.15467  0.33835  1.0000
  Si  Si700     1.0  0.97597  0.17867  0.08835  1.0000
  Si  Si701     1.0  0.85737  0.01200  0.33835  1.0000
  Si  Si702     1.0  0.73447  0.02290  0.35985  1.0000
  Si  Si703     1.0  0.76553  0.18957  0.10985  1.0000
  Si  Si704     1.0  0.73447  0.14377  0.35985  1.0000
  Si  Si705     1.0  0.93220  0.31043  0.14015  1.0000
  Si  Si706     1.0  0.90113  0.14377  0.39015  1.0000
  Si  Si707     1.0  0.93220  0.18957  0.14015  1.0000
  Si  Si708     1.0  0.90113  0.02290  0.39015  1.0000
  Si  Si709     1.0  0.80650  0.27580  0.34025  1.0000
  Si  Si710     1.0  0.69350  0.10913  0.09025  1.0000
  Si  Si711     1.0  0.80650  0.22420  0.34025  1.0000
  Si  Si712     1.0  0.69350  0.05753  0.09025  1.0000
  Si  Si713     1.0  0.86017  0.05753  0.15975  1.0000
  Si  Si714     1.0  0.97317  0.22420  0.40975  1.0000
  Si  Si715     1.0  0.86017  0.10913  0.15975  1.0000
  Si  Si716     1.0  0.97317  0.27580  0.40975  1.0000
  Si  Si717     1.0  0.77173  0.29217  0.41805  1.0000
  Si  Si718     1.0  0.72827  0.12550  0.16805  1.0000
  Si  Si719     1.0  0.77173  0.20783  0.41805  1.0000
  Si  Si720     1.0  0.72827  0.04117  0.16805  1.0000
  Si  Si721     1.0  0.89493  0.04117  0.08195  1.0000
  Si  Si722     1.0  0.93840  0.20783  0.33195  1.0000
  Si  Si723     1.0  0.89493  0.12550  0.08195  1.0000
  Si  Si724     1.0  0.93840  0.29217  0.33195  1.0000
  Si  Si725     1.0  0.75777  0.27593  0.02010  1.0000
  Si  Si726     1.0  0.74223  0.10927  0.27010  1.0000
  Si  Si727     1.0  0.75777  0.22407  0.02010  1.0000
  Si  Si728     1.0  0.74223  0.05740  0.27010  1.0000
  Si  Si729     1.0  0.90890  0.05740  0.47990  1.0000
  Si  Si730     1.0  0.92443  0.22407  0.22990  1.0000
  Si  Si731     1.0  0.90890  0.10927  0.47990  1.0000
  Si  Si732     1.0  0.92443  0.27593  0.22990  1.0000
  Si  Si733     1.0  0.79383  0.10930  0.25915  1.0000
  Si  Si734     1.0  0.70617  0.22403  0.00915  1.0000
  Si  Si735     1.0  0.79383  0.05737  0.25915  1.0000
  Si  Si736     1.0  0.96050  0.05737  0.49085  1.0000
  Si  Si737     1.0  0.87283  0.22403  0.24085  1.0000
  Si  Si738     1.0  0.96050  0.10930  0.49085  1.0000
  Si  Si739     1.0  0.87283  0.27597  0.24085  1.0000
  Si  Si740     1.0  0.81143  0.12647  0.15435  1.0000
  Si  Si741     1.0  0.68857  0.20687  0.40435  1.0000
  Si  Si742     1.0  0.81143  0.04020  0.15435  1.0000
  Si  Si743     1.0  0.97810  0.04020  0.09565  1.0000
  Si  Si744     1.0  0.85523  0.20687  0.34565  1.0000
  Si  Si745     1.0  0.97810  0.12647  0.09565  1.0000
  Si  Si746     1.0  0.85523  0.29313  0.34565  1.0000
  Si  Si747     1.0  0.76843  0.10960  0.10460  1.0000
  Si  Si748     1.0  0.73157  0.22373  0.35460  1.0000
  Si  Si749     1.0  0.76843  0.05707  0.10460  1.0000
  Si  Si750     1.0  0.93510  0.05707  0.14540  1.0000
  Si  Si751     1.0  0.89823  0.22373  0.39540  1.0000
  Si  Si752     1.0  0.93510  0.10960  0.14540  1.0000
  Si  Si753     1.0  0.89823  0.27627  0.39540  1.0000
  O   O1577     1.0  0.83373  0.02330  0.85090  1.0000
  O   O1578     1.0  0.99960  0.18997  0.60090  1.0000
  O   O1579     1.0  0.83373  0.14337  0.85090  1.0000
  O   O1580     1.0  0.99960  0.31003  0.60090  1.0000
  O   O1581     1.0  0.83293  0.31003  0.64910  1.0000
  O   O1582     1.0  0.66707  0.14337  0.89910  1.0000
  O   O1583     1.0  0.83293  0.18997  0.64910  1.0000
  O   O1584     1.0  0.66707  0.02330  0.89910  1.0000
  O   O1585     1.0  0.79583  0.02477  0.90040  1.0000
  O   O1586     1.0  0.70417  0.19143  0.65040  1.0000
  O   O1587     1.0  0.79583  0.14190  0.90040  1.0000
  O   O1588     1.0  0.87083  0.30857  0.59960  1.0000
  O   O1589     1.0  0.96250  0.14190  0.84960  1.0000
  O   O1590     1.0  0.87083  0.19143  0.59960  1.0000
  O   O1591     1.0  0.96250  0.02477  0.84960  1.0000
  O   O1592     1.0  0.79983  0.04553  0.81255  1.0000
  O   O1593     1.0  0.70017  0.21220  0.56255  1.0000
  O   O1594     1.0  0.79983  0.12113  0.81255  1.0000
  O   O1595     1.0  0.86683  0.28780  0.68745  1.0000
  O   O1596     1.0  0.96650  0.12113  0.93745  1.0000
  O   O1597     1.0  0.86683  0.21220  0.68745  1.0000
  O   O1598     1.0  0.96650  0.04553  0.93745  1.0000
  O   O1599     1.0  0.79907  0.00113  0.81630  1.0000
  O   O1600     1.0  0.70093  0.16780  0.56630  1.0000
  O   O1601     1.0  0.79907  0.16553  0.81630  1.0000
  O   O1602     1.0  0.86760  0.33220  0.68370  1.0000
  O   O1603     1.0  0.96573  0.16553  0.93370  1.0000
  O   O1604     1.0  0.86760  0.16780  0.68370  1.0000
  O   O1605     1.0  0.96573  0.00113  0.93370  1.0000
  O   O1606     1.0  0.77633  0.01283  0.98610  1.0000
  O   O1607     1.0  0.72367  0.17950  0.73610  1.0000
  O   O1608     1.0  0.77633  0.15383  0.98610  1.0000
  O   O1609     1.0  0.89033  0.32050  0.51390  1.0000
  O   O1610     1.0  0.94300  0.15383  0.76390  1.0000
  O   O1611     1.0  0.89033  0.17950  0.51390  1.0000
  O   O1612     1.0  0.94300  0.01283  0.76390  1.0000
  O   O1613     1.0  0.77657  0.31850  0.90775  1.0000
  O   O1614     1.0  0.72343  0.15183  0.65775  1.0000
  O   O1615     1.0  0.77657  0.18150  0.90775  1.0000
  O   O1616     1.0  0.72343  0.01483  0.65775  1.0000
  O   O1617     1.0  0.89010  0.01483  0.59225  1.0000
  O   O1618     1.0  0.94323  0.18150  0.84225  1.0000
  O   O1619     1.0  0.89010  0.15183  0.59225  1.0000
  O   O1620     1.0  0.94323  0.31850  0.84225  1.0000
  O   O1621     1.0  0.75237  0.02210  0.90530  1.0000
  O   O1622     1.0  0.74763  0.18877  0.65530  1.0000
  O   O1623     1.0  0.75237  0.14457  0.90530  1.0000
  O   O1624     1.0  0.91430  0.31123  0.59470  1.0000
  O   O1625     1.0  0.91903  0.14457  0.84470  1.0000
  O   O1626     1.0  0.91430  0.18877  0.59470  1.0000
  O   O1627     1.0  0.91903  0.02210  0.84470  1.0000
  O   O1628     1.0  0.76367  0.04320  0.55300  1.0000
  O   O1629     1.0  0.73633  0.20987  0.80300  1.0000
  O   O1630     1.0  0.76367  0.12347  0.55300  1.0000
  O   O1631     1.0  0.90300  0.29013  0.94700  1.0000
  O   O1632     1.0  0.93033  0.12347  0.69700  1.0000
  O   O1633     1.0  0.90300  0.20987  0.94700  1.0000
  O   O1634     1.0  0.93033  0.04320  0.69700  1.0000
  O   O1635     1.0  0.73447  0.01517  0.51375  1.0000
  O   O1636     1.0  0.76553  0.18183  0.76375  1.0000
  O   O1637     1.0  0.73447  0.15150  0.51375  1.0000
  O   O1638     1.0  0.76553  0.31817  0.76375  1.0000
  O   O1639     1.0  0.93220  0.31817  0.98625  1.0000
  O   O1640     1.0  0.90113  0.15150  0.73625  1.0000
  O   O1641     1.0  0.93220  0.18183  0.98625  1.0000
  O   O1642     1.0  0.90113  0.01517  0.73625  1.0000
  O   O1643     1.0  0.76453  0.00033  0.57820  1.0000
  O   O1644     1.0  0.73547  0.16700  0.82820  1.0000
  O   O1645     1.0  0.76453  0.16633  0.57820  1.0000
  O   O1646     1.0  0.90213  0.33300  0.92180  1.0000
  O   O1647     1.0  0.93120  0.16633  0.67180  1.0000
  O   O1648     1.0  0.90213  0.16700  0.92180  1.0000
  O   O1649     1.0  0.93120  0.00033  0.67180  1.0000
  O   O1650     1.0  0.70250  0.04217  0.54415  1.0000
  O   O1651     1.0  0.79750  0.20883  0.79415  1.0000
  O   O1652     1.0  0.70250  0.12450  0.54415  1.0000
  O   O1653     1.0  0.79750  0.29117  0.79415  1.0000
  O   O1654     1.0  0.96417  0.29117  0.95585  1.0000
  O   O1655     1.0  0.86917  0.12450  0.70585  1.0000
  O   O1656     1.0  0.96417  0.20883  0.95585  1.0000
  O   O1657     1.0  0.86917  0.04217  0.70585  1.0000
  O   O1658     1.0  0.69487  0.01233  0.97215  1.0000
  O   O1659     1.0  0.80513  0.17900  0.72215  1.0000
  O   O1660     1.0  0.69487  0.15433  0.97215  1.0000
  O   O1661     1.0  0.80513  0.32100  0.72215  1.0000
  O   O1662     1.0  0.97180  0.32100  0.52785  1.0000
  O   O1663     1.0  0.86153  0.15433  0.77785  1.0000
  O   O1664     1.0  0.97180  0.17900  0.52785  1.0000
  O   O1665     1.0  0.86153  0.01233  0.77785  1.0000
  O   O1666     1.0  0.71003  0.02603  0.88350  1.0000
  O   O1667     1.0  0.78997  0.19270  0.63350  1.0000
  O   O1668     1.0  0.71003  0.14063  0.88350  1.0000
  O   O1669     1.0  0.78997  0.30730  0.63350  1.0000
  O   O1670     1.0  0.95663  0.30730  0.61650  1.0000
  O   O1671     1.0  0.87670  0.14063  0.86650  1.0000
  O   O1672     1.0  0.95663  0.19270  0.61650  1.0000
  O   O1673     1.0  0.87670  0.02603  0.86650  1.0000
  O   O1674     1.0  0.80907  0.15297  0.64160  1.0000
  O   O1675     1.0  0.69093  0.18037  0.89160  1.0000
  O   O1676     1.0  0.80907  0.01370  0.64160  1.0000
  O   O1677     1.0  0.97573  0.01370  0.60840  1.0000
  O   O1678     1.0  0.85760  0.18037  0.85840  1.0000
  O   O1679     1.0  0.97573  0.15297  0.60840  1.0000
  O   O1680     1.0  0.85760  0.31963  0.85840  1.0000
  O   O1681     1.0  0.74003  0.04377  0.82280  1.0000
  O   O1682     1.0  0.75997  0.21043  0.57280  1.0000
  O   O1683     1.0  0.74003  0.12290  0.82280  1.0000
  O   O1684     1.0  0.75997  0.28957  0.57280  1.0000
  O   O1685     1.0  0.92663  0.28957  0.67720  1.0000
  O   O1686     1.0  0.90670  0.12290  0.92720  1.0000
  O   O1687     1.0  0.92663  0.21043  0.67720  1.0000
  O   O1688     1.0  0.90670  0.04377  0.92720  1.0000
  O   O1689     1.0  0.83037  0.28493  0.85845  1.0000
  O   O1690     1.0  0.66963  0.11827  0.60845  1.0000
  O   O1691     1.0  0.83037  0.21507  0.85845  1.0000
  O   O1692     1.0  0.66963  0.04840  0.60845  1.0000
  O   O1693     1.0  0.83630  0.04840  0.64155  1.0000
  O   O1694     1.0  0.99703  0.21507  0.89155  1.0000
  O   O1695     1.0  0.83630  0.11827  0.64155  1.0000
  O   O1696     1.0  0.99703  0.28493  0.89155  1.0000
  O   O1697     1.0  0.78937  0.27703  0.88715  1.0000
  O   O1698     1.0  0.71063  0.11037  0.63715  1.0000
  O   O1699     1.0  0.78937  0.22297  0.88715  1.0000
  O   O1700     1.0  0.71063  0.05630  0.63715  1.0000
  O   O1701     1.0  0.87730  0.05630  0.61285  1.0000
  O   O1702     1.0  0.95603  0.22297  0.86285  1.0000
  O   O1703     1.0  0.87730  0.11037  0.61285  1.0000
  O   O1704     1.0  0.95603  0.27703  0.86285  1.0000
  O   O1705     1.0  0.80877  0.25000  0.82155  1.0000
  O   O1706     1.0  0.69123  0.08333  0.57155  1.0000
  O   O1707     1.0  0.85790  0.08333  0.67845  1.0000
  O   O1708     1.0  0.97543  0.25000  0.92845  1.0000
  O   O1709     1.0  0.77390  0.28703  0.97805  1.0000
  O   O1710     1.0  0.72610  0.12037  0.72805  1.0000
  O   O1711     1.0  0.77390  0.21297  0.97805  1.0000
  O   O1712     1.0  0.72610  0.04630  0.72805  1.0000
  O   O1713     1.0  0.89277  0.04630  0.52195  1.0000
  O   O1714     1.0  0.94057  0.21297  0.77195  1.0000
  O   O1715     1.0  0.89277  0.12037  0.52195  1.0000
  O   O1716     1.0  0.94057  0.28703  0.77195  1.0000
  O   O1717     1.0  0.74700  0.28607  0.89950  1.0000
  O   O1718     1.0  0.75300  0.11940  0.64950  1.0000
  O   O1719     1.0  0.74700  0.21393  0.89950  1.0000
  O   O1720     1.0  0.75300  0.04727  0.64950  1.0000
  O   O1721     1.0  0.91967  0.04727  0.60050  1.0000
  O   O1722     1.0  0.91367  0.21393  0.85050  1.0000
  O   O1723     1.0  0.91967  0.11940  0.60050  1.0000
  O   O1724     1.0  0.91367  0.28607  0.85050  1.0000
  O   O1725     1.0  0.76477  0.25000  0.52895  1.0000
  O   O1726     1.0  0.73523  0.08333  0.77895  1.0000
  O   O1727     1.0  0.90190  0.08333  0.97105  1.0000
  O   O1728     1.0  0.93143  0.25000  0.72105  1.0000
  O   O1729     1.0  0.73253  0.27710  0.50015  1.0000
  O   O1730     1.0  0.76747  0.11043  0.75015  1.0000
  O   O1731     1.0  0.73253  0.22290  0.50015  1.0000
  O   O1732     1.0  0.76747  0.05623  0.75015  1.0000
  O   O1733     1.0  0.93413  0.05623  0.99985  1.0000
  O   O1734     1.0  0.89920  0.22290  0.74985  1.0000
  O   O1735     1.0  0.93413  0.11043  0.99985  1.0000
  O   O1736     1.0  0.89920  0.27710  0.74985  1.0000
  O   O1737     1.0  0.69827  0.25000  0.51025  1.0000
  O   O1738     1.0  0.80173  0.08333  0.76025  1.0000
  O   O1739     1.0  0.96840  0.08333  0.98975  1.0000
  O   O1740     1.0  0.86493  0.25000  0.73975  1.0000
  O   O1741     1.0  0.80637  0.12233  0.71375  1.0000
  O   O1742     1.0  0.69363  0.21100  0.96375  1.0000
  O   O1743     1.0  0.80637  0.04433  0.71375  1.0000
  O   O1744     1.0  0.97303  0.04433  0.53625  1.0000
  O   O1745     1.0  0.86030  0.21100  0.78625  1.0000
  O   O1746     1.0  0.97303  0.12233  0.53625  1.0000
  O   O1747     1.0  0.86030  0.28900  0.78625  1.0000
  O   O1748     1.0  0.79410  0.11233  0.62030  1.0000
  O   O1749     1.0  0.70590  0.22100  0.87030  1.0000
  O   O1750     1.0  0.79410  0.05433  0.62030  1.0000
  O   O1751     1.0  0.96077  0.05433  0.62970  1.0000
  O   O1752     1.0  0.87257  0.22100  0.87970  1.0000
  O   O1753     1.0  0.96077  0.11233  0.62970  1.0000
  O   O1754     1.0  0.87257  0.27900  0.87970  1.0000
  O   O1755     1.0  0.73720  0.25000  0.84565  1.0000
  O   O1756     1.0  0.76280  0.08333  0.59565  1.0000
  O   O1757     1.0  0.92947  0.08333  0.65435  1.0000
  O   O1758     1.0  0.90387  0.25000  0.90435  1.0000
  Si  Si754     1.0  0.80713  0.02370  0.84490  1.0000
  Si  Si755     1.0  0.69287  0.19037  0.59490  1.0000
  Si  Si756     1.0  0.80713  0.14297  0.84490  1.0000
  Si  Si757     1.0  0.85953  0.30963  0.65510  1.0000
  Si  Si758     1.0  0.97380  0.14297  0.90510  1.0000
  Si  Si759     1.0  0.85953  0.19037  0.65510  1.0000
  Si  Si760     1.0  0.97380  0.02370  0.90510  1.0000
  Si  Si761     1.0  0.77530  0.01120  0.92500  1.0000
  Si  Si762     1.0  0.72470  0.17787  0.67500  1.0000
  Si  Si763     1.0  0.77530  0.15547  0.92500  1.0000
  Si  Si764     1.0  0.89137  0.32213  0.57500  1.0000
  Si  Si765     1.0  0.94197  0.15547  0.82500  1.0000
  Si  Si766     1.0  0.89137  0.17787  0.57500  1.0000
  Si  Si767     1.0  0.94197  0.01120  0.82500  1.0000
  Si  Si768     1.0  0.75973  0.01787  0.53275  1.0000
  Si  Si769     1.0  0.74027  0.18453  0.78275  1.0000
  Si  Si770     1.0  0.75973  0.14880  0.53275  1.0000
  Si  Si771     1.0  0.90693  0.31547  0.96725  1.0000
  Si  Si772     1.0  0.92640  0.14880  0.71725  1.0000
  Si  Si773     1.0  0.90693  0.18453  0.96725  1.0000
  Si  Si774     1.0  0.92640  0.01787  0.71725  1.0000
  Si  Si775     1.0  0.70820  0.01713  0.52405  1.0000
  Si  Si776     1.0  0.79180  0.18380  0.77405  1.0000
  Si  Si777     1.0  0.70820  0.14953  0.52405  1.0000
  Si  Si778     1.0  0.79180  0.31620  0.77405  1.0000
  Si  Si779     1.0  0.95847  0.31620  0.97595  1.0000
  Si  Si780     1.0  0.87487  0.14953  0.72595  1.0000
  Si  Si781     1.0  0.95847  0.18380  0.97595  1.0000
  Si  Si782     1.0  0.87487  0.01713  0.72595  1.0000
  Si  Si783     1.0  0.69070  0.01200  0.91165  1.0000
  Si  Si784     1.0  0.80930  0.17867  0.66165  1.0000
  Si  Si785     1.0  0.69070  0.15467  0.91165  1.0000
  Si  Si786     1.0  0.80930  0.32133  0.66165  1.0000
  Si  Si787     1.0  0.97597  0.32133  0.58835  1.0000
  Si  Si788     1.0  0.85737  0.15467  0.83835  1.0000
  Si  Si789     1.0  0.97597  0.17867  0.58835  1.0000
  Si  Si790     1.0  0.85737  0.01200  0.83835  1.0000
  Si  Si791     1.0  0.73447  0.02290  0.85985  1.0000
  Si  Si792     1.0  0.76553  0.18957  0.60985  1.0000
  Si  Si793     1.0  0.73447  0.14377  0.85985  1.0000
  Si  Si794     1.0  0.93220  0.31043  0.64015  1.0000
  Si  Si795     1.0  0.90113  0.14377  0.89015  1.0000
  Si  Si796     1.0  0.93220  0.18957  0.64015  1.0000
  Si  Si797     1.0  0.90113  0.02290  0.89015  1.0000
  Si  Si798     1.0  0.80650  0.27580  0.84025  1.0000
  Si  Si799     1.0  0.69350  0.10913  0.59025  1.0000
  Si  Si800     1.0  0.80650  0.22420  0.84025  1.0000
  Si  Si801     1.0  0.69350  0.05753  0.59025  1.0000
  Si  Si802     1.0  0.86017  0.05753  0.65975  1.0000
  Si  Si803     1.0  0.97317  0.22420  0.90975  1.0000
  Si  Si804     1.0  0.86017  0.10913  0.65975  1.0000
  Si  Si805     1.0  0.97317  0.27580  0.90975  1.0000
  Si  Si806     1.0  0.77173  0.29217  0.91805  1.0000
  Si  Si807     1.0  0.72827  0.12550  0.66805  1.0000
  Si  Si808     1.0  0.77173  0.20783  0.91805  1.0000
  Si  Si809     1.0  0.72827  0.04117  0.66805  1.0000
  Si  Si810     1.0  0.89493  0.04117  0.58195  1.0000
  Si  Si811     1.0  0.93840  0.20783  0.83195  1.0000
  Si  Si812     1.0  0.89493  0.12550  0.58195  1.0000
  Si  Si813     1.0  0.93840  0.29217  0.83195  1.0000
  Si  Si814     1.0  0.75777  0.27593  0.52010  1.0000
  Si  Si815     1.0  0.74223  0.10927  0.77010  1.0000
  Si  Si816     1.0  0.75777  0.22407  0.52010  1.0000
  Si  Si817     1.0  0.74223  0.05740  0.77010  1.0000
  Si  Si818     1.0  0.90890  0.05740  0.97990  1.0000
  Si  Si819     1.0  0.92443  0.22407  0.72990  1.0000
  Si  Si820     1.0  0.90890  0.10927  0.97990  1.0000
  Si  Si821     1.0  0.92443  0.27593  0.72990  1.0000
  Si  Si822     1.0  0.79383  0.10930  0.75915  1.0000
  Si  Si823     1.0  0.70617  0.22403  0.50915  1.0000
  Si  Si824     1.0  0.79383  0.05737  0.75915  1.0000
  Si  Si825     1.0  0.96050  0.05737  0.99085  1.0000
  Si  Si826     1.0  0.87283  0.22403  0.74085  1.0000
  Si  Si827     1.0  0.96050  0.10930  0.99085  1.0000
  Si  Si828     1.0  0.87283  0.27597  0.74085  1.0000
  Si  Si829     1.0  0.81143  0.12647  0.65435  1.0000
  Si  Si830     1.0  0.68857  0.20687  0.90435  1.0000
  Si  Si831     1.0  0.81143  0.04020  0.65435  1.0000
  Si  Si832     1.0  0.97810  0.04020  0.59565  1.0000
  Si  Si833     1.0  0.85523  0.20687  0.84565  1.0000
  Si  Si834     1.0  0.97810  0.12647  0.59565  1.0000
  Si  Si835     1.0  0.85523  0.29313  0.84565  1.0000
  Si  Si836     1.0  0.76843  0.10960  0.60460  1.0000
  Si  Si837     1.0  0.73157  0.22373  0.85460  1.0000
  Si  Si838     1.0  0.76843  0.05707  0.60460  1.0000
  Si  Si839     1.0  0.93510  0.05707  0.64540  1.0000
  Si  Si840     1.0  0.89823  0.22373  0.89540  1.0000
  Si  Si841     1.0  0.93510  0.10960  0.64540  1.0000
  Si  Si842     1.0  0.89823  0.27627  0.89540  1.0000
  O   O1759     1.0  0.83373  0.35663  0.35090  1.0000
  O   O1760     1.0  0.99960  0.52330  0.10090  1.0000
  O   O1761     1.0  0.83373  0.47670  0.35090  1.0000
  O   O1762     1.0  0.99960  0.64337  0.10090  1.0000
  O   O1763     1.0  0.83293  0.64337  0.14910  1.0000
  O   O1764     1.0  0.83293  0.52330  0.14910  1.0000
  O   O1765     1.0  0.79583  0.35810  0.40040  1.0000
  O   O1766     1.0  0.87083  0.64190  0.09960  1.0000
  O   O1767     1.0  0.96250  0.47523  0.34960  1.0000
  O   O1768     1.0  0.87083  0.52477  0.09960  1.0000
  O   O1769     1.0  0.96250  0.35810  0.34960  1.0000
  O   O1770     1.0  0.79983  0.37887  0.31255  1.0000
  O   O1771     1.0  0.86683  0.62113  0.18745  1.0000
  O   O1772     1.0  0.96650  0.45447  0.43745  1.0000
  O   O1773     1.0  0.86683  0.54553  0.18745  1.0000
  O   O1774     1.0  0.96650  0.37887  0.43745  1.0000
  O   O1775     1.0  0.79907  0.33447  0.31630  1.0000
  O   O1776     1.0  0.86760  0.66553  0.18370  1.0000
  O   O1777     1.0  0.96573  0.49887  0.43370  1.0000
  O   O1778     1.0  0.86760  0.50113  0.18370  1.0000
  O   O1779     1.0  0.96573  0.33447  0.43370  1.0000
  O   O1780     1.0  0.89033  0.65383  0.01390  1.0000
  O   O1781     1.0  0.94300  0.48717  0.26390  1.0000
  O   O1782     1.0  0.89033  0.51283  0.01390  1.0000
  O   O1783     1.0  0.94300  0.34617  0.26390  1.0000
  O   O1784     1.0  0.89010  0.34817  0.09225  1.0000
  O   O1785     1.0  0.94323  0.51483  0.34225  1.0000
  O   O1786     1.0  0.89010  0.48517  0.09225  1.0000
  O   O1787     1.0  0.94323  0.65183  0.34225  1.0000
  O   O1788     1.0  0.91430  0.64457  0.09470  1.0000
  O   O1789     1.0  0.91903  0.47790  0.34470  1.0000
  O   O1790     1.0  0.91430  0.52210  0.09470  1.0000
  O   O1791     1.0  0.91903  0.35543  0.34470  1.0000
  O   O1792     1.0  0.90300  0.62347  0.44700  1.0000
  O   O1793     1.0  0.93033  0.45680  0.19700  1.0000
  O   O1794     1.0  0.90300  0.54320  0.44700  1.0000
  O   O1795     1.0  0.93033  0.37653  0.19700  1.0000
  O   O1796     1.0  0.93220  0.65150  0.48625  1.0000
  O   O1797     1.0  0.90113  0.48483  0.23625  1.0000
  O   O1798     1.0  0.93220  0.51517  0.48625  1.0000
  O   O1799     1.0  0.90113  0.34850  0.23625  1.0000
  O   O1800     1.0  0.90213  0.66633  0.42180  1.0000
  O   O1801     1.0  0.93120  0.49967  0.17180  1.0000
  O   O1802     1.0  0.90213  0.50033  0.42180  1.0000
  O   O1803     1.0  0.93120  0.33367  0.17180  1.0000
  O   O1804     1.0  0.96417  0.62450  0.45585  1.0000
  O   O1805     1.0  0.86917  0.45783  0.20585  1.0000
  O   O1806     1.0  0.96417  0.54217  0.45585  1.0000
  O   O1807     1.0  0.86917  0.37550  0.20585  1.0000
  O   O1808     1.0  0.80513  0.65433  0.22215  1.0000
  O   O1809     1.0  0.97180  0.65433  0.02785  1.0000
  O   O1810     1.0  0.86153  0.48767  0.27785  1.0000
  O   O1811     1.0  0.97180  0.51233  0.02785  1.0000
  O   O1812     1.0  0.86153  0.34567  0.27785  1.0000
  O   O1813     1.0  0.78997  0.64063  0.13350  1.0000
  O   O1814     1.0  0.95663  0.64063  0.11650  1.0000
  O   O1815     1.0  0.87670  0.47397  0.36650  1.0000
  O   O1816     1.0  0.95663  0.52603  0.11650  1.0000
  O   O1817     1.0  0.87670  0.35937  0.36650  1.0000
  O   O1818     1.0  0.80907  0.34703  0.14160  1.0000
  O   O1819     1.0  0.97573  0.34703  0.10840  1.0000
  O   O1820     1.0  0.85760  0.51370  0.35840  1.0000
  O   O1821     1.0  0.97573  0.48630  0.10840  1.0000
  O   O1822     1.0  0.85760  0.65297  0.35840  1.0000
  O   O1823     1.0  0.92663  0.62290  0.17720  1.0000
  O   O1824     1.0  0.90670  0.45623  0.42720  1.0000
  O   O1825     1.0  0.92663  0.54377  0.17720  1.0000
  O   O1826     1.0  0.90670  0.37710  0.42720  1.0000
  O   O1827     1.0  0.83037  0.61827  0.35845  1.0000
  O   O1828     1.0  0.83037  0.54840  0.35845  1.0000
  O   O1829     1.0  0.83630  0.38173  0.14155  1.0000
  O   O1830     1.0  0.99703  0.54840  0.39155  1.0000
  O   O1831     1.0  0.83630  0.45160  0.14155  1.0000
  O   O1832     1.0  0.99703  0.61827  0.39155  1.0000
  O   O1833     1.0  0.87730  0.38963  0.11285  1.0000
  O   O1834     1.0  0.95603  0.55630  0.36285  1.0000
  O   O1835     1.0  0.87730  0.44370  0.11285  1.0000
  O   O1836     1.0  0.95603  0.61037  0.36285  1.0000
  O   O1837     1.0  0.85790  0.41667  0.17845  1.0000
  O   O1838     1.0  0.97543  0.58333  0.42845  1.0000
  O   O1839     1.0  0.89277  0.37963  0.02195  1.0000
  O   O1840     1.0  0.94057  0.54630  0.27195  1.0000
  O   O1841     1.0  0.89277  0.45370  0.02195  1.0000
  O   O1842     1.0  0.94057  0.62037  0.27195  1.0000
  O   O1843     1.0  0.91967  0.38060  0.10050  1.0000
  O   O1844     1.0  0.91367  0.54727  0.35050  1.0000
  O   O1845     1.0  0.91967  0.45273  0.10050  1.0000
  O   O1846     1.0  0.91367  0.61940  0.35050  1.0000
  O   O1847     1.0  0.90190  0.41667  0.47105  1.0000
  O   O1848     1.0  0.93143  0.58333  0.22105  1.0000
  O   O1849     1.0  0.93413  0.38957  0.49985  1.0000
  O   O1850     1.0  0.89920  0.55623  0.24985  1.0000
  O   O1851     1.0  0.93413  0.44377  0.49985  1.0000
  O   O1852     1.0  0.89920  0.61043  0.24985  1.0000
  O   O1853     1.0  0.96840  0.41667  0.48975  1.0000
  O   O1854     1.0  0.86493  0.58333  0.23975  1.0000
  O   O1855     1.0  0.80637  0.37767  0.21375  1.0000
  O   O1856     1.0  0.97303  0.37767  0.03625  1.0000
  O   O1857     1.0  0.86030  0.54433  0.28625  1.0000
  O   O1858     1.0  0.97303  0.45567  0.03625  1.0000
  O   O1859     1.0  0.86030  0.62233  0.28625  1.0000
  O   O1860     1.0  0.79410  0.38767  0.12030  1.0000
  O   O1861     1.0  0.96077  0.38767  0.12970  1.0000
  O   O1862     1.0  0.87257  0.55433  0.37970  1.0000
  O   O1863     1.0  0.96077  0.44567  0.12970  1.0000
  O   O1864     1.0  0.87257  0.61233  0.37970  1.0000
  O   O1865     1.0  0.92947  0.41667  0.15435  1.0000
  O   O1866     1.0  0.90387  0.58333  0.40435  1.0000
  Si  Si843     1.0  0.80713  0.35703  0.34490  1.0000
  Si  Si844     1.0  0.85953  0.64297  0.15510  1.0000
  Si  Si845     1.0  0.97380  0.47630  0.40510  1.0000
  Si  Si846     1.0  0.85953  0.52370  0.15510  1.0000
  Si  Si847     1.0  0.97380  0.35703  0.40510  1.0000
  Si  Si848     1.0  0.89137  0.65547  0.07500  1.0000
  Si  Si849     1.0  0.94197  0.48880  0.32500  1.0000
  Si  Si850     1.0  0.89137  0.51120  0.07500  1.0000
  Si  Si851     1.0  0.94197  0.34453  0.32500  1.0000
  Si  Si852     1.0  0.90693  0.64880  0.46725  1.0000
  Si  Si853     1.0  0.92640  0.48213  0.21725  1.0000
  Si  Si854     1.0  0.90693  0.51787  0.46725  1.0000
  Si  Si855     1.0  0.92640  0.35120  0.21725  1.0000
  Si  Si856     1.0  0.95847  0.64953  0.47595  1.0000
  Si  Si857     1.0  0.87487  0.48287  0.22595  1.0000
  Si  Si858     1.0  0.95847  0.51713  0.47595  1.0000
  Si  Si859     1.0  0.87487  0.35047  0.22595  1.0000
  Si  Si860     1.0  0.80930  0.65467  0.16165  1.0000
  Si  Si861     1.0  0.97597  0.65467  0.08835  1.0000
  Si  Si862     1.0  0.85737  0.48800  0.33835  1.0000
  Si  Si863     1.0  0.97597  0.51200  0.08835  1.0000
  Si  Si864     1.0  0.85737  0.34533  0.33835  1.0000
  Si  Si865     1.0  0.93220  0.64377  0.14015  1.0000
  Si  Si866     1.0  0.90113  0.47710  0.39015  1.0000
  Si  Si867     1.0  0.93220  0.52290  0.14015  1.0000
  Si  Si868     1.0  0.90113  0.35623  0.39015  1.0000
  Si  Si869     1.0  0.86017  0.39087  0.15975  1.0000
  Si  Si870     1.0  0.97317  0.55753  0.40975  1.0000
  Si  Si871     1.0  0.86017  0.44247  0.15975  1.0000
  Si  Si872     1.0  0.97317  0.60913  0.40975  1.0000
  Si  Si873     1.0  0.89493  0.37450  0.08195  1.0000
  Si  Si874     1.0  0.93840  0.54117  0.33195  1.0000
  Si  Si875     1.0  0.89493  0.45883  0.08195  1.0000
  Si  Si876     1.0  0.93840  0.62550  0.33195  1.0000
  Si  Si877     1.0  0.90890  0.39073  0.47990  1.0000
  Si  Si878     1.0  0.92443  0.55740  0.22990  1.0000
  Si  Si879     1.0  0.90890  0.44260  0.47990  1.0000
  Si  Si880     1.0  0.92443  0.60927  0.22990  1.0000
  Si  Si881     1.0  0.96050  0.39070  0.49085  1.0000
  Si  Si882     1.0  0.87283  0.55737  0.24085  1.0000
  Si  Si883     1.0  0.96050  0.44263  0.49085  1.0000
  Si  Si884     1.0  0.87283  0.60930  0.24085  1.0000
  Si  Si885     1.0  0.81143  0.37353  0.15435  1.0000
  Si  Si886     1.0  0.97810  0.37353  0.09565  1.0000
  Si  Si887     1.0  0.85523  0.54020  0.34565  1.0000
  Si  Si888     1.0  0.97810  0.45980  0.09565  1.0000
  Si  Si889     1.0  0.85523  0.62647  0.34565  1.0000
  Si  Si890     1.0  0.93510  0.39040  0.14540  1.0000
  Si  Si891     1.0  0.89823  0.55707  0.39540  1.0000
  Si  Si892     1.0  0.93510  0.44293  0.14540  1.0000
  Si  Si893     1.0  0.89823  0.60960  0.39540  1.0000
  O   O1867     1.0  0.83373  0.35663  0.85090  1.0000
  O   O1868     1.0  0.99960  0.52330  0.60090  1.0000
  O   O1869     1.0  0.83373  0.47670  0.85090  1.0000
  O   O1870     1.0  0.99960  0.64337  0.60090  1.0000
  O   O1871     1.0  0.83293  0.64337  0.64910  1.0000
  O   O1872     1.0  0.83293  0.52330  0.64910  1.0000
  O   O1873     1.0  0.79583  0.35810  0.90040  1.0000
  O   O1874     1.0  0.87083  0.64190  0.59960  1.0000
  O   O1875     1.0  0.96250  0.47523  0.84960  1.0000
  O   O1876     1.0  0.87083  0.52477  0.59960  1.0000
  O   O1877     1.0  0.96250  0.35810  0.84960  1.0000
  O   O1878     1.0  0.79983  0.37887  0.81255  1.0000
  O   O1879     1.0  0.86683  0.62113  0.68745  1.0000
  O   O1880     1.0  0.96650  0.45447  0.93745  1.0000
  O   O1881     1.0  0.86683  0.54553  0.68745  1.0000
  O   O1882     1.0  0.96650  0.37887  0.93745  1.0000
  O   O1883     1.0  0.79907  0.33447  0.81630  1.0000
  O   O1884     1.0  0.86760  0.66553  0.68370  1.0000
  O   O1885     1.0  0.96573  0.49887  0.93370  1.0000
  O   O1886     1.0  0.86760  0.50113  0.68370  1.0000
  O   O1887     1.0  0.96573  0.33447  0.93370  1.0000
  O   O1888     1.0  0.89033  0.65383  0.51390  1.0000
  O   O1889     1.0  0.94300  0.48717  0.76390  1.0000
  O   O1890     1.0  0.89033  0.51283  0.51390  1.0000
  O   O1891     1.0  0.94300  0.34617  0.76390  1.0000
  O   O1892     1.0  0.89010  0.34817  0.59225  1.0000
  O   O1893     1.0  0.94323  0.51483  0.84225  1.0000
  O   O1894     1.0  0.89010  0.48517  0.59225  1.0000
  O   O1895     1.0  0.94323  0.65183  0.84225  1.0000
  O   O1896     1.0  0.91430  0.64457  0.59470  1.0000
  O   O1897     1.0  0.91903  0.47790  0.84470  1.0000
  O   O1898     1.0  0.91430  0.52210  0.59470  1.0000
  O   O1899     1.0  0.91903  0.35543  0.84470  1.0000
  O   O1900     1.0  0.90300  0.62347  0.94700  1.0000
  O   O1901     1.0  0.93033  0.45680  0.69700  1.0000
  O   O1902     1.0  0.90300  0.54320  0.94700  1.0000
  O   O1903     1.0  0.93033  0.37653  0.69700  1.0000
  O   O1904     1.0  0.93220  0.65150  0.98625  1.0000
  O   O1905     1.0  0.90113  0.48483  0.73625  1.0000
  O   O1906     1.0  0.93220  0.51517  0.98625  1.0000
  O   O1907     1.0  0.90113  0.34850  0.73625  1.0000
  O   O1908     1.0  0.90213  0.66633  0.92180  1.0000
  O   O1909     1.0  0.93120  0.49967  0.67180  1.0000
  O   O1910     1.0  0.90213  0.50033  0.92180  1.0000
  O   O1911     1.0  0.93120  0.33367  0.67180  1.0000
  O   O1912     1.0  0.96417  0.62450  0.95585  1.0000
  O   O1913     1.0  0.86917  0.45783  0.70585  1.0000
  O   O1914     1.0  0.96417  0.54217  0.95585  1.0000
  O   O1915     1.0  0.86917  0.37550  0.70585  1.0000
  O   O1916     1.0  0.80513  0.65433  0.72215  1.0000
  O   O1917     1.0  0.97180  0.65433  0.52785  1.0000
  O   O1918     1.0  0.86153  0.48767  0.77785  1.0000
  O   O1919     1.0  0.97180  0.51233  0.52785  1.0000
  O   O1920     1.0  0.86153  0.34567  0.77785  1.0000
  O   O1921     1.0  0.78997  0.64063  0.63350  1.0000
  O   O1922     1.0  0.95663  0.64063  0.61650  1.0000
  O   O1923     1.0  0.87670  0.47397  0.86650  1.0000
  O   O1924     1.0  0.95663  0.52603  0.61650  1.0000
  O   O1925     1.0  0.87670  0.35937  0.86650  1.0000
  O   O1926     1.0  0.80907  0.34703  0.64160  1.0000
  O   O1927     1.0  0.97573  0.34703  0.60840  1.0000
  O   O1928     1.0  0.85760  0.51370  0.85840  1.0000
  O   O1929     1.0  0.97573  0.48630  0.60840  1.0000
  O   O1930     1.0  0.85760  0.65297  0.85840  1.0000
  O   O1931     1.0  0.92663  0.62290  0.67720  1.0000
  O   O1932     1.0  0.90670  0.45623  0.92720  1.0000
  O   O1933     1.0  0.92663  0.54377  0.67720  1.0000
  O   O1934     1.0  0.90670  0.37710  0.92720  1.0000
  O   O1935     1.0  0.83037  0.61827  0.85845  1.0000
  O   O1936     1.0  0.83037  0.54840  0.85845  1.0000
  O   O1937     1.0  0.83630  0.38173  0.64155  1.0000
  O   O1938     1.0  0.99703  0.54840  0.89155  1.0000
  O   O1939     1.0  0.83630  0.45160  0.64155  1.0000
  O   O1940     1.0  0.99703  0.61827  0.89155  1.0000
  O   O1941     1.0  0.87730  0.38963  0.61285  1.0000
  O   O1942     1.0  0.95603  0.55630  0.86285  1.0000
  O   O1943     1.0  0.87730  0.44370  0.61285  1.0000
  O   O1944     1.0  0.95603  0.61037  0.86285  1.0000
  O   O1945     1.0  0.85790  0.41667  0.67845  1.0000
  O   O1946     1.0  0.97543  0.58333  0.92845  1.0000
  O   O1947     1.0  0.89277  0.37963  0.52195  1.0000
  O   O1948     1.0  0.94057  0.54630  0.77195  1.0000
  O   O1949     1.0  0.89277  0.45370  0.52195  1.0000
  O   O1950     1.0  0.94057  0.62037  0.77195  1.0000
  O   O1951     1.0  0.91967  0.38060  0.60050  1.0000
  O   O1952     1.0  0.91367  0.54727  0.85050  1.0000
  O   O1953     1.0  0.91967  0.45273  0.60050  1.0000
  O   O1954     1.0  0.91367  0.61940  0.85050  1.0000
  O   O1955     1.0  0.90190  0.41667  0.97105  1.0000
  O   O1956     1.0  0.93143  0.58333  0.72105  1.0000
  O   O1957     1.0  0.93413  0.38957  0.99985  1.0000
  O   O1958     1.0  0.89920  0.55623  0.74985  1.0000
  O   O1959     1.0  0.93413  0.44377  0.99985  1.0000
  O   O1960     1.0  0.89920  0.61043  0.74985  1.0000
  O   O1961     1.0  0.96840  0.41667  0.98975  1.0000
  O   O1962     1.0  0.86493  0.58333  0.73975  1.0000
  O   O1963     1.0  0.80637  0.37767  0.71375  1.0000
  O   O1964     1.0  0.97303  0.37767  0.53625  1.0000
  O   O1965     1.0  0.86030  0.54433  0.78625  1.0000
  O   O1966     1.0  0.97303  0.45567  0.53625  1.0000
  O   O1967     1.0  0.86030  0.62233  0.78625  1.0000
  O   O1968     1.0  0.79410  0.38767  0.62030  1.0000
  O   O1969     1.0  0.96077  0.38767  0.62970  1.0000
  O   O1970     1.0  0.87257  0.55433  0.87970  1.0000
  O   O1971     1.0  0.96077  0.44567  0.62970  1.0000
  O   O1972     1.0  0.87257  0.61233  0.87970  1.0000
  O   O1973     1.0  0.92947  0.41667  0.65435  1.0000
  O   O1974     1.0  0.90387  0.58333  0.90435  1.0000
  Si  Si894     1.0  0.80713  0.35703  0.84490  1.0000
  Si  Si895     1.0  0.85953  0.64297  0.65510  1.0000
  Si  Si896     1.0  0.97380  0.47630  0.90510  1.0000
  Si  Si897     1.0  0.85953  0.52370  0.65510  1.0000
  Si  Si898     1.0  0.97380  0.35703  0.90510  1.0000
  Si  Si899     1.0  0.89137  0.65547  0.57500  1.0000
  Si  Si900     1.0  0.94197  0.48880  0.82500  1.0000
  Si  Si901     1.0  0.89137  0.51120  0.57500  1.0000
  Si  Si902     1.0  0.94197  0.34453  0.82500  1.0000
  Si  Si903     1.0  0.90693  0.64880  0.96725  1.0000
  Si  Si904     1.0  0.92640  0.48213  0.71725  1.0000
  Si  Si905     1.0  0.90693  0.51787  0.96725  1.0000
  Si  Si906     1.0  0.92640  0.35120  0.71725  1.0000
  Si  Si907     1.0  0.95847  0.64953  0.97595  1.0000
  Si  Si908     1.0  0.87487  0.48287  0.72595  1.0000
  Si  Si909     1.0  0.95847  0.51713  0.97595  1.0000
  Si  Si910     1.0  0.87487  0.35047  0.72595  1.0000
  Si  Si911     1.0  0.80930  0.65467  0.66165  1.0000
  Si  Si912     1.0  0.97597  0.65467  0.58835  1.0000
  Si  Si913     1.0  0.85737  0.48800  0.83835  1.0000
  Si  Si914     1.0  0.97597  0.51200  0.58835  1.0000
  Si  Si915     1.0  0.85737  0.34533  0.83835  1.0000
  Si  Si916     1.0  0.93220  0.64377  0.64015  1.0000
  Si  Si917     1.0  0.90113  0.47710  0.89015  1.0000
  Si  Si918     1.0  0.93220  0.52290  0.64015  1.0000
  Si  Si919     1.0  0.90113  0.35623  0.89015  1.0000
  Si  Si920     1.0  0.86017  0.39087  0.65975  1.0000
  Si  Si921     1.0  0.97317  0.55753  0.90975  1.0000
  Si  Si922     1.0  0.86017  0.44247  0.65975  1.0000
  Si  Si923     1.0  0.97317  0.60913  0.90975  1.0000
  Si  Si924     1.0  0.89493  0.37450  0.58195  1.0000
  Si  Si925     1.0  0.93840  0.54117  0.83195  1.0000
  Si  Si926     1.0  0.89493  0.45883  0.58195  1.0000
  Si  Si927     1.0  0.93840  0.62550  0.83195  1.0000
  Si  Si928     1.0  0.90890  0.39073  0.97990  1.0000
  Si  Si929     1.0  0.92443  0.55740  0.72990  1.0000
  Si  Si930     1.0  0.90890  0.44260  0.97990  1.0000
  Si  Si931     1.0  0.92443  0.60927  0.72990  1.0000
  Si  Si932     1.0  0.96050  0.39070  0.99085  1.0000
  Si  Si933     1.0  0.87283  0.55737  0.74085  1.0000
  Si  Si934     1.0  0.96050  0.44263  0.99085  1.0000
  Si  Si935     1.0  0.87283  0.60930  0.74085  1.0000
  Si  Si936     1.0  0.81143  0.37353  0.65435  1.0000
  Si  Si937     1.0  0.97810  0.37353  0.59565  1.0000
  Si  Si938     1.0  0.85523  0.54020  0.84565  1.0000
  Si  Si939     1.0  0.97810  0.45980  0.59565  1.0000
  Si  Si940     1.0  0.85523  0.62647  0.84565  1.0000
  Si  Si941     1.0  0.93510  0.39040  0.64540  1.0000
  Si  Si942     1.0  0.89823  0.55707  0.89540  1.0000
  Si  Si943     1.0  0.93510  0.44293  0.64540  1.0000
  Si  Si944     1.0  0.89823  0.60960  0.89540  1.0000
  O   O1975     1.0  0.83373  0.68997  0.35090  1.0000
  O   O1976     1.0  0.99960  0.85663  0.10090  1.0000
  O   O1977     1.0  0.83373  0.81003  0.35090  1.0000
  O   O1978     1.0  0.99960  0.97670  0.10090  1.0000
  O   O1979     1.0  0.83293  0.97670  0.14910  1.0000
  O   O1980     1.0  0.66707  0.81003  0.39910  1.0000
  O   O1981     1.0  0.83293  0.85663  0.14910  1.0000
  O   O1982     1.0  0.79583  0.69143  0.40040  1.0000
  O   O1983     1.0  0.70417  0.85810  0.15040  1.0000
  O   O1984     1.0  0.79583  0.80857  0.40040  1.0000
  O   O1985     1.0  0.70417  0.97523  0.15040  1.0000
  O   O1986     1.0  0.87083  0.97523  0.09960  1.0000
  O   O1987     1.0  0.96250  0.80857  0.34960  1.0000
  O   O1988     1.0  0.87083  0.85810  0.09960  1.0000
  O   O1989     1.0  0.96250  0.69143  0.34960  1.0000
  O   O1990     1.0  0.79983  0.71220  0.31255  1.0000
  O   O1991     1.0  0.70017  0.87887  0.06255  1.0000
  O   O1992     1.0  0.79983  0.78780  0.31255  1.0000
  O   O1993     1.0  0.70017  0.95447  0.06255  1.0000
  O   O1994     1.0  0.86683  0.95447  0.18745  1.0000
  O   O1995     1.0  0.96650  0.78780  0.43745  1.0000
  O   O1996     1.0  0.86683  0.87887  0.18745  1.0000
  O   O1997     1.0  0.96650  0.71220  0.43745  1.0000
  O   O1998     1.0  0.79907  0.66780  0.31630  1.0000
  O   O1999     1.0  0.70093  0.83447  0.06630  1.0000
  O   O2000     1.0  0.79907  0.83220  0.31630  1.0000
  O   O2001     1.0  0.70093  0.99887  0.06630  1.0000
  O   O2002     1.0  0.86760  0.99887  0.18370  1.0000
  O   O2003     1.0  0.96573  0.83220  0.43370  1.0000
  O   O2004     1.0  0.86760  0.83447  0.18370  1.0000
  O   O2005     1.0  0.96573  0.66780  0.43370  1.0000
  O   O2006     1.0  0.72367  0.84617  0.23610  1.0000
  O   O2007     1.0  0.77633  0.82050  0.48610  1.0000
  O   O2008     1.0  0.72367  0.98717  0.23610  1.0000
  O   O2009     1.0  0.89033  0.98717  0.01390  1.0000
  O   O2010     1.0  0.94300  0.82050  0.26390  1.0000
  O   O2011     1.0  0.89033  0.84617  0.01390  1.0000
  O   O2012     1.0  0.94300  0.67950  0.26390  1.0000
  O   O2013     1.0  0.77657  0.98517  0.40775  1.0000
  O   O2014     1.0  0.72343  0.81850  0.15775  1.0000
  O   O2015     1.0  0.77657  0.84817  0.40775  1.0000
  O   O2016     1.0  0.89010  0.68150  0.09225  1.0000
  O   O2017     1.0  0.94323  0.84817  0.34225  1.0000
  O   O2018     1.0  0.89010  0.81850  0.09225  1.0000
  O   O2019     1.0  0.94323  0.98517  0.34225  1.0000
  O   O2020     1.0  0.74763  0.85543  0.15530  1.0000
  O   O2021     1.0  0.75237  0.81123  0.40530  1.0000
  O   O2022     1.0  0.74763  0.97790  0.15530  1.0000
  O   O2023     1.0  0.91430  0.97790  0.09470  1.0000
  O   O2024     1.0  0.91903  0.81123  0.34470  1.0000
  O   O2025     1.0  0.91430  0.85543  0.09470  1.0000
  O   O2026     1.0  0.91903  0.68877  0.34470  1.0000
  O   O2027     1.0  0.76367  0.70987  0.05300  1.0000
  O   O2028     1.0  0.73633  0.87653  0.30300  1.0000
  O   O2029     1.0  0.76367  0.79013  0.05300  1.0000
  O   O2030     1.0  0.73633  0.95680  0.30300  1.0000
  O   O2031     1.0  0.90300  0.95680  0.44700  1.0000
  O   O2032     1.0  0.93033  0.79013  0.19700  1.0000
  O   O2033     1.0  0.90300  0.87653  0.44700  1.0000
  O   O2034     1.0  0.93033  0.70987  0.19700  1.0000
  O   O2035     1.0  0.76553  0.84850  0.26375  1.0000
  O   O2036     1.0  0.73447  0.81817  0.01375  1.0000
  O   O2037     1.0  0.76553  0.98483  0.26375  1.0000
  O   O2038     1.0  0.93220  0.98483  0.48625  1.0000
  O   O2039     1.0  0.90113  0.81817  0.23625  1.0000
  O   O2040     1.0  0.93220  0.84850  0.48625  1.0000
  O   O2041     1.0  0.90113  0.68183  0.23625  1.0000
  O   O2042     1.0  0.73547  0.83367  0.32820  1.0000
  O   O2043     1.0  0.76453  0.83300  0.07820  1.0000
  O   O2044     1.0  0.73547  0.99967  0.32820  1.0000
  O   O2045     1.0  0.90213  0.99967  0.42180  1.0000
  O   O2046     1.0  0.93120  0.83300  0.17180  1.0000
  O   O2047     1.0  0.90213  0.83367  0.42180  1.0000
  O   O2048     1.0  0.93120  0.66700  0.17180  1.0000
  O   O2049     1.0  0.79750  0.87550  0.29415  1.0000
  O   O2050     1.0  0.70250  0.79117  0.04415  1.0000
  O   O2051     1.0  0.79750  0.95783  0.29415  1.0000
  O   O2052     1.0  0.96417  0.95783  0.45585  1.0000
  O   O2053     1.0  0.86917  0.79117  0.20585  1.0000
  O   O2054     1.0  0.96417  0.87550  0.45585  1.0000
  O   O2055     1.0  0.86917  0.70883  0.20585  1.0000
  O   O2056     1.0  0.80513  0.84567  0.22215  1.0000
  O   O2057     1.0  0.69487  0.82100  0.47215  1.0000
  O   O2058     1.0  0.80513  0.98767  0.22215  1.0000
  O   O2059     1.0  0.97180  0.98767  0.02785  1.0000
  O   O2060     1.0  0.86153  0.82100  0.27785  1.0000
  O   O2061     1.0  0.97180  0.84567  0.02785  1.0000
  O   O2062     1.0  0.86153  0.67900  0.27785  1.0000
  O   O2063     1.0  0.78997  0.85937  0.13350  1.0000
  O   O2064     1.0  0.71003  0.80730  0.38350  1.0000
  O   O2065     1.0  0.78997  0.97397  0.13350  1.0000
  O   O2066     1.0  0.95663  0.97397  0.11650  1.0000
  O   O2067     1.0  0.87670  0.80730  0.36650  1.0000
  O   O2068     1.0  0.95663  0.85937  0.11650  1.0000
  O   O2069     1.0  0.87670  0.69270  0.36650  1.0000
  O   O2070     1.0  0.69093  0.98630  0.39160  1.0000
  O   O2071     1.0  0.80907  0.81963  0.14160  1.0000
  O   O2072     1.0  0.69093  0.84703  0.39160  1.0000
  O   O2073     1.0  0.80907  0.68037  0.14160  1.0000
  O   O2074     1.0  0.97573  0.68037  0.10840  1.0000
  O   O2075     1.0  0.85760  0.84703  0.35840  1.0000
  O   O2076     1.0  0.97573  0.81963  0.10840  1.0000
  O   O2077     1.0  0.85760  0.98630  0.35840  1.0000
  O   O2078     1.0  0.75997  0.87710  0.07280  1.0000
  O   O2079     1.0  0.74003  0.78957  0.32280  1.0000
  O   O2080     1.0  0.75997  0.95623  0.07280  1.0000
  O   O2081     1.0  0.92663  0.95623  0.17720  1.0000
  O   O2082     1.0  0.90670  0.78957  0.42720  1.0000
  O   O2083     1.0  0.92663  0.87710  0.17720  1.0000
  O   O2084     1.0  0.90670  0.71043  0.42720  1.0000
  O   O2085     1.0  0.83037  0.95160  0.35845  1.0000
  O   O2086     1.0  0.66963  0.78493  0.10845  1.0000
  O   O2087     1.0  0.83037  0.88173  0.35845  1.0000
  O   O2088     1.0  0.83630  0.71507  0.14155  1.0000
  O   O2089     1.0  0.99703  0.88173  0.39155  1.0000
  O   O2090     1.0  0.83630  0.78493  0.14155  1.0000
  O   O2091     1.0  0.99703  0.95160  0.39155  1.0000
  O   O2092     1.0  0.78937  0.94370  0.38715  1.0000
  O   O2093     1.0  0.71063  0.77703  0.13715  1.0000
  O   O2094     1.0  0.78937  0.88963  0.38715  1.0000
  O   O2095     1.0  0.87730  0.72297  0.11285  1.0000
  O   O2096     1.0  0.95603  0.88963  0.36285  1.0000
  O   O2097     1.0  0.87730  0.77703  0.11285  1.0000
  O   O2098     1.0  0.95603  0.94370  0.36285  1.0000
  O   O2099     1.0  0.80877  0.91667  0.32155  1.0000
  O   O2100     1.0  0.69123  0.75000  0.07155  1.0000
  O   O2101     1.0  0.85790  0.75000  0.17845  1.0000
  O   O2102     1.0  0.97543  0.91667  0.42845  1.0000
  O   O2103     1.0  0.77390  0.95370  0.47805  1.0000
  O   O2104     1.0  0.72610  0.78703  0.22805  1.0000
  O   O2105     1.0  0.77390  0.87963  0.47805  1.0000
  O   O2106     1.0  0.89277  0.71297  0.02195  1.0000
  O   O2107     1.0  0.94057  0.87963  0.27195  1.0000
  O   O2108     1.0  0.89277  0.78703  0.02195  1.0000
  O   O2109     1.0  0.94057  0.95370  0.27195  1.0000
  O   O2110     1.0  0.74700  0.95273  0.39950  1.0000
  O   O2111     1.0  0.75300  0.78607  0.14950  1.0000
  O   O2112     1.0  0.74700  0.88060  0.39950  1.0000
  O   O2113     1.0  0.75300  0.71393  0.14950  1.0000
  O   O2114     1.0  0.91967  0.71393  0.10050  1.0000
  O   O2115     1.0  0.91367  0.88060  0.35050  1.0000
  O   O2116     1.0  0.91967  0.78607  0.10050  1.0000
  O   O2117     1.0  0.91367  0.95273  0.35050  1.0000
  O   O2118     1.0  0.76477  0.91667  0.02895  1.0000
  O   O2119     1.0  0.73523  0.75000  0.27895  1.0000
  O   O2120     1.0  0.90190  0.75000  0.47105  1.0000
  O   O2121     1.0  0.93143  0.91667  0.22105  1.0000
  O   O2122     1.0  0.73253  0.94377  0.00015  1.0000
  O   O2123     1.0  0.76747  0.77710  0.25015  1.0000
  O   O2124     1.0  0.73253  0.88957  0.00015  1.0000
  O   O2125     1.0  0.76747  0.72290  0.25015  1.0000
  O   O2126     1.0  0.93413  0.72290  0.49985  1.0000
  O   O2127     1.0  0.89920  0.88957  0.24985  1.0000
  O   O2128     1.0  0.93413  0.77710  0.49985  1.0000
  O   O2129     1.0  0.89920  0.94377  0.24985  1.0000
  O   O2130     1.0  0.69827  0.91667  0.01025  1.0000
  O   O2131     1.0  0.80173  0.75000  0.26025  1.0000
  O   O2132     1.0  0.96840  0.75000  0.48975  1.0000
  O   O2133     1.0  0.86493  0.91667  0.23975  1.0000
  O   O2134     1.0  0.69363  0.95567  0.46375  1.0000
  O   O2135     1.0  0.80637  0.78900  0.21375  1.0000
  O   O2136     1.0  0.69363  0.87767  0.46375  1.0000
  O   O2137     1.0  0.80637  0.71100  0.21375  1.0000
  O   O2138     1.0  0.97303  0.71100  0.03625  1.0000
  O   O2139     1.0  0.86030  0.87767  0.28625  1.0000
  O   O2140     1.0  0.97303  0.78900  0.03625  1.0000
  O   O2141     1.0  0.86030  0.95567  0.28625  1.0000
  O   O2142     1.0  0.70590  0.94567  0.37030  1.0000
  O   O2143     1.0  0.79410  0.77900  0.12030  1.0000
  O   O2144     1.0  0.70590  0.88767  0.37030  1.0000
  O   O2145     1.0  0.79410  0.72100  0.12030  1.0000
  O   O2146     1.0  0.96077  0.72100  0.12970  1.0000
  O   O2147     1.0  0.87257  0.88767  0.37970  1.0000
  O   O2148     1.0  0.96077  0.77900  0.12970  1.0000
  O   O2149     1.0  0.87257  0.94567  0.37970  1.0000
  O   O2150     1.0  0.73720  0.91667  0.34565  1.0000
  O   O2151     1.0  0.76280  0.75000  0.09565  1.0000
  O   O2152     1.0  0.92947  0.75000  0.15435  1.0000
  O   O2153     1.0  0.90387  0.91667  0.40435  1.0000
  Si  Si945     1.0  0.80713  0.69037  0.34490  1.0000
  Si  Si946     1.0  0.69287  0.85703  0.09490  1.0000
  Si  Si947     1.0  0.80713  0.80963  0.34490  1.0000
  Si  Si948     1.0  0.69287  0.97630  0.09490  1.0000
  Si  Si949     1.0  0.85953  0.97630  0.15510  1.0000
  Si  Si950     1.0  0.97380  0.80963  0.40510  1.0000
  Si  Si951     1.0  0.85953  0.85703  0.15510  1.0000
  Si  Si952     1.0  0.97380  0.69037  0.40510  1.0000
  Si  Si953     1.0  0.72470  0.84453  0.17500  1.0000
  Si  Si954     1.0  0.77530  0.82213  0.42500  1.0000
  Si  Si955     1.0  0.72470  0.98880  0.17500  1.0000
  Si  Si956     1.0  0.89137  0.98880  0.07500  1.0000
  Si  Si957     1.0  0.94197  0.82213  0.32500  1.0000
  Si  Si958     1.0  0.89137  0.84453  0.07500  1.0000
  Si  Si959     1.0  0.94197  0.67787  0.32500  1.0000
  Si  Si960     1.0  0.74027  0.85120  0.28275  1.0000
  Si  Si961     1.0  0.75973  0.81547  0.03275  1.0000
  Si  Si962     1.0  0.74027  0.98213  0.28275  1.0000
  Si  Si963     1.0  0.90693  0.98213  0.46725  1.0000
  Si  Si964     1.0  0.92640  0.81547  0.21725  1.0000
  Si  Si965     1.0  0.90693  0.85120  0.46725  1.0000
  Si  Si966     1.0  0.92640  0.68453  0.21725  1.0000
  Si  Si967     1.0  0.79180  0.85047  0.27405  1.0000
  Si  Si968     1.0  0.70820  0.81620  0.02405  1.0000
  Si  Si969     1.0  0.79180  0.98287  0.27405  1.0000
  Si  Si970     1.0  0.95847  0.98287  0.47595  1.0000
  Si  Si971     1.0  0.87487  0.81620  0.22595  1.0000
  Si  Si972     1.0  0.95847  0.85047  0.47595  1.0000
  Si  Si973     1.0  0.87487  0.68380  0.22595  1.0000
  Si  Si974     1.0  0.80930  0.84533  0.16165  1.0000
  Si  Si975     1.0  0.69070  0.82133  0.41165  1.0000
  Si  Si976     1.0  0.80930  0.98800  0.16165  1.0000
  Si  Si977     1.0  0.97597  0.98800  0.08835  1.0000
  Si  Si978     1.0  0.85737  0.82133  0.33835  1.0000
  Si  Si979     1.0  0.97597  0.84533  0.08835  1.0000
  Si  Si980     1.0  0.85737  0.67867  0.33835  1.0000
  Si  Si981     1.0  0.76553  0.85623  0.10985  1.0000
  Si  Si982     1.0  0.73447  0.81043  0.35985  1.0000
  Si  Si983     1.0  0.76553  0.97710  0.10985  1.0000
  Si  Si984     1.0  0.93220  0.97710  0.14015  1.0000
  Si  Si985     1.0  0.90113  0.81043  0.39015  1.0000
  Si  Si986     1.0  0.93220  0.85623  0.14015  1.0000
  Si  Si987     1.0  0.90113  0.68957  0.39015  1.0000
  Si  Si988     1.0  0.80650  0.94247  0.34025  1.0000
  Si  Si989     1.0  0.69350  0.77580  0.09025  1.0000
  Si  Si990     1.0  0.80650  0.89087  0.34025  1.0000
  Si  Si991     1.0  0.86017  0.72420  0.15975  1.0000
  Si  Si992     1.0  0.97317  0.89087  0.40975  1.0000
  Si  Si993     1.0  0.86017  0.77580  0.15975  1.0000
  Si  Si994     1.0  0.97317  0.94247  0.40975  1.0000
  Si  Si995     1.0  0.77173  0.95883  0.41805  1.0000
  Si  Si996     1.0  0.72827  0.79217  0.16805  1.0000
  Si  Si997     1.0  0.77173  0.87450  0.41805  1.0000
  Si  Si998     1.0  0.89493  0.70783  0.08195  1.0000
  Si  Si999     1.0  0.93840  0.87450  0.33195  1.0000
  Si  Si1000    1.0  0.89493  0.79217  0.08195  1.0000
  Si  Si1001    1.0  0.93840  0.95883  0.33195  1.0000
  Si  Si1002    1.0  0.75777  0.94260  0.02010  1.0000
  Si  Si1003    1.0  0.74223  0.77593  0.27010  1.0000
  Si  Si1004    1.0  0.75777  0.89073  0.02010  1.0000
  Si  Si1005    1.0  0.90890  0.72407  0.47990  1.0000
  Si  Si1006    1.0  0.92443  0.89073  0.22990  1.0000
  Si  Si1007    1.0  0.90890  0.77593  0.47990  1.0000
  Si  Si1008    1.0  0.92443  0.94260  0.22990  1.0000
  Si  Si1009    1.0  0.70617  0.94263  0.00915  1.0000
  Si  Si1010    1.0  0.79383  0.77597  0.25915  1.0000
  Si  Si1011    1.0  0.70617  0.89070  0.00915  1.0000
  Si  Si1012    1.0  0.79383  0.72403  0.25915  1.0000
  Si  Si1013    1.0  0.96050  0.72403  0.49085  1.0000
  Si  Si1014    1.0  0.87283  0.89070  0.24085  1.0000
  Si  Si1015    1.0  0.96050  0.77597  0.49085  1.0000
  Si  Si1016    1.0  0.87283  0.94263  0.24085  1.0000
  Si  Si1017    1.0  0.68857  0.95980  0.40435  1.0000
  Si  Si1018    1.0  0.81143  0.79313  0.15435  1.0000
  Si  Si1019    1.0  0.68857  0.87353  0.40435  1.0000
  Si  Si1020    1.0  0.81143  0.70687  0.15435  1.0000
  Si  Si1021    1.0  0.97810  0.70687  0.09565  1.0000
  Si  Si1022    1.0  0.85523  0.87353  0.34565  1.0000
  Si  Si1023    1.0  0.97810  0.79313  0.09565  1.0000
  Si  Si1024    1.0  0.85523  0.95980  0.34565  1.0000
  Si  Si1025    1.0  0.73157  0.94293  0.35460  1.0000
  Si  Si1026    1.0  0.76843  0.77627  0.10460  1.0000
  Si  Si1027    1.0  0.73157  0.89040  0.35460  1.0000
  Si  Si1028    1.0  0.76843  0.72373  0.10460  1.0000
  Si  Si1029    1.0  0.93510  0.72373  0.14540  1.0000
  Si  Si1030    1.0  0.89823  0.89040  0.39540  1.0000
  Si  Si1031    1.0  0.93510  0.77627  0.14540  1.0000
  Si  Si1032    1.0  0.89823  0.94293  0.39540  1.0000
  O   O2154     1.0  0.83373  0.68997  0.85090  1.0000
  O   O2155     1.0  0.99960  0.85663  0.60090  1.0000
  O   O2156     1.0  0.83373  0.81003  0.85090  1.0000
  O   O2157     1.0  0.99960  0.97670  0.60090  1.0000
  O   O2158     1.0  0.83293  0.97670  0.64910  1.0000
  O   O2159     1.0  0.66707  0.81003  0.89910  1.0000
  O   O2160     1.0  0.83293  0.85663  0.64910  1.0000
  O   O2161     1.0  0.79583  0.69143  0.90040  1.0000
  O   O2162     1.0  0.70417  0.85810  0.65040  1.0000
  O   O2163     1.0  0.79583  0.80857  0.90040  1.0000
  O   O2164     1.0  0.70417  0.97523  0.65040  1.0000
  O   O2165     1.0  0.87083  0.97523  0.59960  1.0000
  O   O2166     1.0  0.96250  0.80857  0.84960  1.0000
  O   O2167     1.0  0.87083  0.85810  0.59960  1.0000
  O   O2168     1.0  0.96250  0.69143  0.84960  1.0000
  O   O2169     1.0  0.79983  0.71220  0.81255  1.0000
  O   O2170     1.0  0.70017  0.87887  0.56255  1.0000
  O   O2171     1.0  0.79983  0.78780  0.81255  1.0000
  O   O2172     1.0  0.70017  0.95447  0.56255  1.0000
  O   O2173     1.0  0.86683  0.95447  0.68745  1.0000
  O   O2174     1.0  0.96650  0.78780  0.93745  1.0000
  O   O2175     1.0  0.86683  0.87887  0.68745  1.0000
  O   O2176     1.0  0.96650  0.71220  0.93745  1.0000
  O   O2177     1.0  0.79907  0.66780  0.81630  1.0000
  O   O2178     1.0  0.70093  0.83447  0.56630  1.0000
  O   O2179     1.0  0.79907  0.83220  0.81630  1.0000
  O   O2180     1.0  0.70093  0.99887  0.56630  1.0000
  O   O2181     1.0  0.86760  0.99887  0.68370  1.0000
  O   O2182     1.0  0.96573  0.83220  0.93370  1.0000
  O   O2183     1.0  0.86760  0.83447  0.68370  1.0000
  O   O2184     1.0  0.96573  0.66780  0.93370  1.0000
  O   O2185     1.0  0.72367  0.84617  0.73610  1.0000
  O   O2186     1.0  0.77633  0.82050  0.98610  1.0000
  O   O2187     1.0  0.72367  0.98717  0.73610  1.0000
  O   O2188     1.0  0.89033  0.98717  0.51390  1.0000
  O   O2189     1.0  0.94300  0.82050  0.76390  1.0000
  O   O2190     1.0  0.89033  0.84617  0.51390  1.0000
  O   O2191     1.0  0.94300  0.67950  0.76390  1.0000
  O   O2192     1.0  0.77657  0.98517  0.90775  1.0000
  O   O2193     1.0  0.72343  0.81850  0.65775  1.0000
  O   O2194     1.0  0.77657  0.84817  0.90775  1.0000
  O   O2195     1.0  0.89010  0.68150  0.59225  1.0000
  O   O2196     1.0  0.94323  0.84817  0.84225  1.0000
  O   O2197     1.0  0.89010  0.81850  0.59225  1.0000
  O   O2198     1.0  0.94323  0.98517  0.84225  1.0000
  O   O2199     1.0  0.74763  0.85543  0.65530  1.0000
  O   O2200     1.0  0.75237  0.81123  0.90530  1.0000
  O   O2201     1.0  0.74763  0.97790  0.65530  1.0000
  O   O2202     1.0  0.91430  0.97790  0.59470  1.0000
  O   O2203     1.0  0.91903  0.81123  0.84470  1.0000
  O   O2204     1.0  0.91430  0.85543  0.59470  1.0000
  O   O2205     1.0  0.91903  0.68877  0.84470  1.0000
  O   O2206     1.0  0.76367  0.70987  0.55300  1.0000
  O   O2207     1.0  0.73633  0.87653  0.80300  1.0000
  O   O2208     1.0  0.76367  0.79013  0.55300  1.0000
  O   O2209     1.0  0.73633  0.95680  0.80300  1.0000
  O   O2210     1.0  0.90300  0.95680  0.94700  1.0000
  O   O2211     1.0  0.93033  0.79013  0.69700  1.0000
  O   O2212     1.0  0.90300  0.87653  0.94700  1.0000
  O   O2213     1.0  0.93033  0.70987  0.69700  1.0000
  O   O2214     1.0  0.76553  0.84850  0.76375  1.0000
  O   O2215     1.0  0.73447  0.81817  0.51375  1.0000
  O   O2216     1.0  0.76553  0.98483  0.76375  1.0000
  O   O2217     1.0  0.93220  0.98483  0.98625  1.0000
  O   O2218     1.0  0.90113  0.81817  0.73625  1.0000
  O   O2219     1.0  0.93220  0.84850  0.98625  1.0000
  O   O2220     1.0  0.90113  0.68183  0.73625  1.0000
  O   O2221     1.0  0.73547  0.83367  0.82820  1.0000
  O   O2222     1.0  0.76453  0.83300  0.57820  1.0000
  O   O2223     1.0  0.73547  0.99967  0.82820  1.0000
  O   O2224     1.0  0.90213  0.99967  0.92180  1.0000
  O   O2225     1.0  0.93120  0.83300  0.67180  1.0000
  O   O2226     1.0  0.90213  0.83367  0.92180  1.0000
  O   O2227     1.0  0.93120  0.66700  0.67180  1.0000
  O   O2228     1.0  0.79750  0.87550  0.79415  1.0000
  O   O2229     1.0  0.70250  0.79117  0.54415  1.0000
  O   O2230     1.0  0.79750  0.95783  0.79415  1.0000
  O   O2231     1.0  0.96417  0.95783  0.95585  1.0000
  O   O2232     1.0  0.86917  0.79117  0.70585  1.0000
  O   O2233     1.0  0.96417  0.87550  0.95585  1.0000
  O   O2234     1.0  0.86917  0.70883  0.70585  1.0000
  O   O2235     1.0  0.80513  0.84567  0.72215  1.0000
  O   O2236     1.0  0.69487  0.82100  0.97215  1.0000
  O   O2237     1.0  0.80513  0.98767  0.72215  1.0000
  O   O2238     1.0  0.97180  0.98767  0.52785  1.0000
  O   O2239     1.0  0.86153  0.82100  0.77785  1.0000
  O   O2240     1.0  0.97180  0.84567  0.52785  1.0000
  O   O2241     1.0  0.86153  0.67900  0.77785  1.0000
  O   O2242     1.0  0.78997  0.85937  0.63350  1.0000
  O   O2243     1.0  0.71003  0.80730  0.88350  1.0000
  O   O2244     1.0  0.78997  0.97397  0.63350  1.0000
  O   O2245     1.0  0.95663  0.97397  0.61650  1.0000
  O   O2246     1.0  0.87670  0.80730  0.86650  1.0000
  O   O2247     1.0  0.95663  0.85937  0.61650  1.0000
  O   O2248     1.0  0.87670  0.69270  0.86650  1.0000
  O   O2249     1.0  0.69093  0.98630  0.89160  1.0000
  O   O2250     1.0  0.80907  0.81963  0.64160  1.0000
  O   O2251     1.0  0.69093  0.84703  0.89160  1.0000
  O   O2252     1.0  0.80907  0.68037  0.64160  1.0000
  O   O2253     1.0  0.97573  0.68037  0.60840  1.0000
  O   O2254     1.0  0.85760  0.84703  0.85840  1.0000
  O   O2255     1.0  0.97573  0.81963  0.60840  1.0000
  O   O2256     1.0  0.85760  0.98630  0.85840  1.0000
  O   O2257     1.0  0.75997  0.87710  0.57280  1.0000
  O   O2258     1.0  0.74003  0.78957  0.82280  1.0000
  O   O2259     1.0  0.75997  0.95623  0.57280  1.0000
  O   O2260     1.0  0.92663  0.95623  0.67720  1.0000
  O   O2261     1.0  0.90670  0.78957  0.92720  1.0000
  O   O2262     1.0  0.92663  0.87710  0.67720  1.0000
  O   O2263     1.0  0.90670  0.71043  0.92720  1.0000
  O   O2264     1.0  0.83037  0.95160  0.85845  1.0000
  O   O2265     1.0  0.66963  0.78493  0.60845  1.0000
  O   O2266     1.0  0.83037  0.88173  0.85845  1.0000
  O   O2267     1.0  0.83630  0.71507  0.64155  1.0000
  O   O2268     1.0  0.99703  0.88173  0.89155  1.0000
  O   O2269     1.0  0.83630  0.78493  0.64155  1.0000
  O   O2270     1.0  0.99703  0.95160  0.89155  1.0000
  O   O2271     1.0  0.78937  0.94370  0.88715  1.0000
  O   O2272     1.0  0.71063  0.77703  0.63715  1.0000
  O   O2273     1.0  0.78937  0.88963  0.88715  1.0000
  O   O2274     1.0  0.87730  0.72297  0.61285  1.0000
  O   O2275     1.0  0.95603  0.88963  0.86285  1.0000
  O   O2276     1.0  0.87730  0.77703  0.61285  1.0000
  O   O2277     1.0  0.95603  0.94370  0.86285  1.0000
  O   O2278     1.0  0.80877  0.91667  0.82155  1.0000
  O   O2279     1.0  0.69123  0.75000  0.57155  1.0000
  O   O2280     1.0  0.85790  0.75000  0.67845  1.0000
  O   O2281     1.0  0.97543  0.91667  0.92845  1.0000
  O   O2282     1.0  0.77390  0.95370  0.97805  1.0000
  O   O2283     1.0  0.72610  0.78703  0.72805  1.0000
  O   O2284     1.0  0.77390  0.87963  0.97805  1.0000
  O   O2285     1.0  0.89277  0.71297  0.52195  1.0000
  O   O2286     1.0  0.94057  0.87963  0.77195  1.0000
  O   O2287     1.0  0.89277  0.78703  0.52195  1.0000
  O   O2288     1.0  0.94057  0.95370  0.77195  1.0000
  O   O2289     1.0  0.74700  0.95273  0.89950  1.0000
  O   O2290     1.0  0.75300  0.78607  0.64950  1.0000
  O   O2291     1.0  0.74700  0.88060  0.89950  1.0000
  O   O2292     1.0  0.75300  0.71393  0.64950  1.0000
  O   O2293     1.0  0.91967  0.71393  0.60050  1.0000
  O   O2294     1.0  0.91367  0.88060  0.85050  1.0000
  O   O2295     1.0  0.91967  0.78607  0.60050  1.0000
  O   O2296     1.0  0.91367  0.95273  0.85050  1.0000
  O   O2297     1.0  0.76477  0.91667  0.52895  1.0000
  O   O2298     1.0  0.73523  0.75000  0.77895  1.0000
  O   O2299     1.0  0.90190  0.75000  0.97105  1.0000
  O   O2300     1.0  0.93143  0.91667  0.72105  1.0000
  O   O2301     1.0  0.73253  0.94377  0.50015  1.0000
  O   O2302     1.0  0.76747  0.77710  0.75015  1.0000
  O   O2303     1.0  0.73253  0.88957  0.50015  1.0000
  O   O2304     1.0  0.76747  0.72290  0.75015  1.0000
  O   O2305     1.0  0.93413  0.72290  0.99985  1.0000
  O   O2306     1.0  0.89920  0.88957  0.74985  1.0000
  O   O2307     1.0  0.93413  0.77710  0.99985  1.0000
  O   O2308     1.0  0.89920  0.94377  0.74985  1.0000
  O   O2309     1.0  0.69827  0.91667  0.51025  1.0000
  O   O2310     1.0  0.80173  0.75000  0.76025  1.0000
  O   O2311     1.0  0.96840  0.75000  0.98975  1.0000
  O   O2312     1.0  0.86493  0.91667  0.73975  1.0000
  O   O2313     1.0  0.69363  0.95567  0.96375  1.0000
  O   O2314     1.0  0.80637  0.78900  0.71375  1.0000
  O   O2315     1.0  0.69363  0.87767  0.96375  1.0000
  O   O2316     1.0  0.80637  0.71100  0.71375  1.0000
  O   O2317     1.0  0.97303  0.71100  0.53625  1.0000
  O   O2318     1.0  0.86030  0.87767  0.78625  1.0000
  O   O2319     1.0  0.97303  0.78900  0.53625  1.0000
  O   O2320     1.0  0.86030  0.95567  0.78625  1.0000
  O   O2321     1.0  0.70590  0.94567  0.87030  1.0000
  O   O2322     1.0  0.79410  0.77900  0.62030  1.0000
  O   O2323     1.0  0.70590  0.88767  0.87030  1.0000
  O   O2324     1.0  0.79410  0.72100  0.62030  1.0000
  O   O2325     1.0  0.96077  0.72100  0.62970  1.0000
  O   O2326     1.0  0.87257  0.88767  0.87970  1.0000
  O   O2327     1.0  0.96077  0.77900  0.62970  1.0000
  O   O2328     1.0  0.87257  0.94567  0.87970  1.0000
  O   O2329     1.0  0.73720  0.91667  0.84565  1.0000
  O   O2330     1.0  0.76280  0.75000  0.59565  1.0000
  O   O2331     1.0  0.92947  0.75000  0.65435  1.0000
  O   O2332     1.0  0.90387  0.91667  0.90435  1.0000
  Si  Si1033    1.0  0.80713  0.69037  0.84490  1.0000
  Si  Si1034    1.0  0.69287  0.85703  0.59490  1.0000
  Si  Si1035    1.0  0.80713  0.80963  0.84490  1.0000
  Si  Si1036    1.0  0.69287  0.97630  0.59490  1.0000
  Si  Si1037    1.0  0.85953  0.97630  0.65510  1.0000
  Si  Si1038    1.0  0.97380  0.80963  0.90510  1.0000
  Si  Si1039    1.0  0.85953  0.85703  0.65510  1.0000
  Si  Si1040    1.0  0.97380  0.69037  0.90510  1.0000
  Si  Si1041    1.0  0.72470  0.84453  0.67500  1.0000
  Si  Si1042    1.0  0.77530  0.82213  0.92500  1.0000
  Si  Si1043    1.0  0.72470  0.98880  0.67500  1.0000
  Si  Si1044    1.0  0.89137  0.98880  0.57500  1.0000
  Si  Si1045    1.0  0.94197  0.82213  0.82500  1.0000
  Si  Si1046    1.0  0.89137  0.84453  0.57500  1.0000
  Si  Si1047    1.0  0.94197  0.67787  0.82500  1.0000
  Si  Si1048    1.0  0.74027  0.85120  0.78275  1.0000
  Si  Si1049    1.0  0.75973  0.81547  0.53275  1.0000
  Si  Si1050    1.0  0.74027  0.98213  0.78275  1.0000
  Si  Si1051    1.0  0.90693  0.98213  0.96725  1.0000
  Si  Si1052    1.0  0.92640  0.81547  0.71725  1.0000
  Si  Si1053    1.0  0.90693  0.85120  0.96725  1.0000
  Si  Si1054    1.0  0.92640  0.68453  0.71725  1.0000
  Si  Si1055    1.0  0.79180  0.85047  0.77405  1.0000
  Si  Si1056    1.0  0.70820  0.81620  0.52405  1.0000
  Si  Si1057    1.0  0.79180  0.98287  0.77405  1.0000
  Si  Si1058    1.0  0.95847  0.98287  0.97595  1.0000
  Si  Si1059    1.0  0.87487  0.81620  0.72595  1.0000
  Si  Si1060    1.0  0.95847  0.85047  0.97595  1.0000
  Si  Si1061    1.0  0.87487  0.68380  0.72595  1.0000
  Si  Si1062    1.0  0.80930  0.84533  0.66165  1.0000
  Si  Si1063    1.0  0.69070  0.82133  0.91165  1.0000
  Si  Si1064    1.0  0.80930  0.98800  0.66165  1.0000
  Si  Si1065    1.0  0.97597  0.98800  0.58835  1.0000
  Si  Si1066    1.0  0.85737  0.82133  0.83835  1.0000
  Si  Si1067    1.0  0.97597  0.84533  0.58835  1.0000
  Si  Si1068    1.0  0.85737  0.67867  0.83835  1.0000
  Si  Si1069    1.0  0.76553  0.85623  0.60985  1.0000
  Si  Si1070    1.0  0.73447  0.81043  0.85985  1.0000
  Si  Si1071    1.0  0.76553  0.97710  0.60985  1.0000
  Si  Si1072    1.0  0.93220  0.97710  0.64015  1.0000
  Si  Si1073    1.0  0.90113  0.81043  0.89015  1.0000
  Si  Si1074    1.0  0.93220  0.85623  0.64015  1.0000
  Si  Si1075    1.0  0.90113  0.68957  0.89015  1.0000
  Si  Si1076    1.0  0.80650  0.94247  0.84025  1.0000
  Si  Si1077    1.0  0.69350  0.77580  0.59025  1.0000
  Si  Si1078    1.0  0.80650  0.89087  0.84025  1.0000
  Si  Si1079    1.0  0.86017  0.72420  0.65975  1.0000
  Si  Si1080    1.0  0.97317  0.89087  0.90975  1.0000
  Si  Si1081    1.0  0.86017  0.77580  0.65975  1.0000
  Si  Si1082    1.0  0.97317  0.94247  0.90975  1.0000
  Si  Si1083    1.0  0.77173  0.95883  0.91805  1.0000
  Si  Si1084    1.0  0.72827  0.79217  0.66805  1.0000
  Si  Si1085    1.0  0.77173  0.87450  0.91805  1.0000
  Si  Si1086    1.0  0.89493  0.70783  0.58195  1.0000
  Si  Si1087    1.0  0.93840  0.87450  0.83195  1.0000
  Si  Si1088    1.0  0.89493  0.79217  0.58195  1.0000
  Si  Si1089    1.0  0.93840  0.95883  0.83195  1.0000
  Si  Si1090    1.0  0.75777  0.94260  0.52010  1.0000
  Si  Si1091    1.0  0.74223  0.77593  0.77010  1.0000
  Si  Si1092    1.0  0.75777  0.89073  0.52010  1.0000
  Si  Si1093    1.0  0.90890  0.72407  0.97990  1.0000
  Si  Si1094    1.0  0.92443  0.89073  0.72990  1.0000
  Si  Si1095    1.0  0.90890  0.77593  0.97990  1.0000
  Si  Si1096    1.0  0.92443  0.94260  0.72990  1.0000
  Si  Si1097    1.0  0.70617  0.94263  0.50915  1.0000
  Si  Si1098    1.0  0.79383  0.77597  0.75915  1.0000
  Si  Si1099    1.0  0.70617  0.89070  0.50915  1.0000
  Si  Si1100    1.0  0.79383  0.72403  0.75915  1.0000
  Si  Si1101    1.0  0.96050  0.72403  0.99085  1.0000
  Si  Si1102    1.0  0.87283  0.89070  0.74085  1.0000
  Si  Si1103    1.0  0.96050  0.77597  0.99085  1.0000
  Si  Si1104    1.0  0.87283  0.94263  0.74085  1.0000
  Si  Si1105    1.0  0.68857  0.95980  0.90435  1.0000
  Si  Si1106    1.0  0.81143  0.79313  0.65435  1.0000
  Si  Si1107    1.0  0.68857  0.87353  0.90435  1.0000
  Si  Si1108    1.0  0.81143  0.70687  0.65435  1.0000
  Si  Si1109    1.0  0.97810  0.70687  0.59565  1.0000
  Si  Si1110    1.0  0.85523  0.87353  0.84565  1.0000
  Si  Si1111    1.0  0.97810  0.79313  0.59565  1.0000
  Si  Si1112    1.0  0.85523  0.95980  0.84565  1.0000
  Si  Si1113    1.0  0.73157  0.94293  0.85460  1.0000
  Si  Si1114    1.0  0.76843  0.77627  0.60460  1.0000
  Si  Si1115    1.0  0.73157  0.89040  0.85460  1.0000
  Si  Si1116    1.0  0.76843  0.72373  0.60460  1.0000
  Si  Si1117    1.0  0.93510  0.72373  0.64540  1.0000
  Si  Si1118    1.0  0.89823  0.89040  0.89540  1.0000
  Si  Si1119    1.0  0.93510  0.77627  0.64540  1.0000
  Si  Si1120    1.0  0.89823  0.94293  0.89540  1.0000
  H   H1        1.0  0.21670  0.31668  0.11656  1.0000
  H   H2        1.0  0.21441  0.33976  0.19795  1.0000
  H   H3        1.0  0.24937  0.30051  0.44962  1.0000
  H   H4        1.0  0.33888  0.22936  0.39699  1.0000
  H   H5        1.0  0.31891  0.26326  0.43224  1.0000
  H   H6        1.0  0.25952  0.29665  0.35790  1.0000
  H   H7        1.0  0.27557  0.26148  0.23386  1.0000
  H   H8        1.0  0.24478  0.28730  0.26130  1.0000
  H   H9        1.0  0.21806  0.31756  0.59492  1.0000
  H   H10       1.0  0.21508  0.34014  0.67501  1.0000
  H   H11       1.0  0.24763  0.29912  0.92785  1.0000
  H   H12       1.0  0.33799  0.22787  0.87395  1.0000
  H   H13       1.0  0.31751  0.26143  0.90887  1.0000
  H   H14       1.0  0.25857  0.29585  0.83447  1.0000
  H   H15       1.0  0.27581  0.26173  0.71067  1.0000
  H   H16       1.0  0.24478  0.28730  0.73841  1.0000
  H   H17       1.0  0.18331  0.47784  0.35818  1.0000
  H   H18       1.0  0.18132  0.52225  0.16493  1.0000
  H   H19       1.0  0.21741  0.63555  0.11752  1.0000
  H   H20       1.0  0.21437  0.61539  0.20226  1.0000
  H   H21       1.0  0.20916  0.35290  0.28826  1.0000
  H   H22       1.0  0.22477  0.36651  0.37329  1.0000
  H   H23       1.0  0.17986  0.54607  0.36525  1.0000
  H   H24       1.0  0.18393  0.38685  0.15706  1.0000
  H   H25       1.0  0.18451  0.45378  0.15769  1.0000
  H   H26       1.0  0.20849  0.61640  0.29662  1.0000
  H   H27       1.0  0.22122  0.60648  0.38597  1.0000
  H   H28       1.0  0.18211  0.47775  0.83504  1.0000
  H   H29       1.0  0.18252  0.52217  0.64184  1.0000
  H   H30       1.0  0.21904  0.63476  0.59459  1.0000
  H   H31       1.0  0.21512  0.61509  0.67810  1.0000
  H   H32       1.0  0.20887  0.35275  0.76510  1.0000
  H   H33       1.0  0.22344  0.36587  0.84955  1.0000
  H   H34       1.0  0.17862  0.54625  0.84254  1.0000
  H   H35       1.0  0.18505  0.38725  0.63495  1.0000
  H   H36       1.0  0.18578  0.45397  0.63463  1.0000
  H   H37       1.0  0.20808  0.61657  0.77276  1.0000
  H   H38       1.0  0.21964  0.60708  0.86196  1.0000
  H   H39       1.0  0.23570  0.67345  0.11034  1.0000
  H   H40       1.0  0.24742  0.67296  0.24912  1.0000
  H   H41       1.0  0.22373  0.68360  0.37281  1.0000
  H   H42       1.0  0.25296  0.69997  0.43082  1.0000
  H   H43       1.0  0.26413  0.70429  0.11850  1.0000
  H   H44       1.0  0.27955  0.71132  0.49986  1.0000
  H   H45       1.0  0.31215  0.73686  0.49029  1.0000
  H   H46       1.0  0.27334  0.73889  0.16972  1.0000
  H   H47       1.0  0.23728  0.67242  0.58763  1.0000
  H   H48       1.0  0.24757  0.67286  0.72459  1.0000
  H   H49       1.0  0.22265  0.68432  0.85056  1.0000
  H   H50       1.0  0.25136  0.70127  0.90859  1.0000
  H   H51       1.0  0.26552  0.70309  0.59540  1.0000
  H   H52       1.0  0.27744  0.71334  0.97840  1.0000
  H   H53       1.0  0.31036  0.73912  0.96843  1.0000
  H   H54       1.0  0.27411  0.73808  0.64699  1.0000
  H   H55       1.0  0.37287  0.22524  0.08237  1.0000
  H   H56       1.0  0.46741  0.18186  0.32527  1.0000
  H   H57       1.0  0.53267  0.18328  0.19844  1.0000
  H   H58       1.0  0.39549  0.19458  0.24851  1.0000
  H   H59       1.0  0.44617  0.19799  0.41252  1.0000
  H   H60       1.0  0.60452  0.19710  0.34998  1.0000
  H   H61       1.0  0.55435  0.16666  0.10961  1.0000
  H   H62       1.0  0.41835  0.20346  0.17158  1.0000
  H   H63       1.0  0.59386  0.19793  0.48695  1.0000
  H   H64       1.0  0.40678  0.18280  0.33635  1.0000
  H   H65       1.0  0.43419  0.18082  0.09651  1.0000
  H   H66       1.0  0.59349  0.18126  0.18648  1.0000
  H   H67       1.0  0.56540  0.18344  0.42566  1.0000
  H   H68       1.0  0.62395  0.22416  0.45817  1.0000
  H   H69       1.0  0.61772  0.20661  0.13386  1.0000
  H   H70       1.0  0.47680  0.16829  0.15742  1.0000
  H   H71       1.0  0.36439  0.19560  0.39677  1.0000
  H   H72       1.0  0.52301  0.19689  0.36572  1.0000
  H   H73       1.0  0.65541  0.22949  0.39704  1.0000
  H   H74       1.0  0.37388  0.22742  0.55924  1.0000
  H   H75       1.0  0.46732  0.18103  0.80164  1.0000
  H   H76       1.0  0.53258  0.18412  0.67468  1.0000
  H   H77       1.0  0.39555  0.19474  0.72487  1.0000
  H   H78       1.0  0.44582  0.19600  0.88918  1.0000
  H   H79       1.0  0.60489  0.19603  0.82664  1.0000
  H   H80       1.0  0.55407  0.16838  0.58787  1.0000
  H   H81       1.0  0.41868  0.20467  0.64736  1.0000
  H   H82       1.0  0.59467  0.19535  0.96559  1.0000
  H   H83       1.0  0.40652  0.18192  0.81349  1.0000
  H   H84       1.0  0.43459  0.18278  0.57435  1.0000
  H   H85       1.0  0.59323  0.18214  0.66366  1.0000
  H   H86       1.0  0.56581  0.18148  0.90346  1.0000
  H   H87       1.0  0.62500  0.22182  0.93552  1.0000
  H   H88       1.0  0.61710  0.20815  0.61064  1.0000
  H   H89       1.0  0.47689  0.16954  0.63484  1.0000
  H   H90       1.0  0.36374  0.19415  0.87471  1.0000
  H   H91       1.0  0.52312  0.19545  0.84149  1.0000
  H   H92       1.0  0.65629  0.22797  0.87382  1.0000
  H   H93       1.0  0.62612  0.77258  0.44076  1.0000
  H   H94       1.0  0.46742  0.81588  0.32532  1.0000
  H   H95       1.0  0.53268  0.81897  0.19836  1.0000
  H   H96       1.0  0.60445  0.80526  0.27513  1.0000
  H   H97       1.0  0.39511  0.80397  0.17336  1.0000
  H   H98       1.0  0.44593  0.83162  0.41213  1.0000
  H   H99       1.0  0.55418  0.80400  0.11082  1.0000
  H   H100      1.0  0.58132  0.79533  0.35264  1.0000
  H   H101      1.0  0.40533  0.80465  0.03441  1.0000
  H   H102      1.0  0.40677  0.81786  0.33634  1.0000
  H   H103      1.0  0.43419  0.81852  0.09654  1.0000
  H   H104      1.0  0.59348  0.81808  0.18651  1.0000
  H   H105      1.0  0.56541  0.81722  0.42565  1.0000
  H   H106      1.0  0.37500  0.77818  0.06448  1.0000
  H   H107      1.0  0.38290  0.79185  0.38936  1.0000
  H   H108      1.0  0.47688  0.80455  0.15851  1.0000
  H   H109      1.0  0.52311  0.83046  0.36516  1.0000
  H   H110      1.0  0.63626  0.80585  0.12529  1.0000
  H   H111      1.0  0.34371  0.77203  0.12618  1.0000
  H   H112      1.0  0.62713  0.77476  0.91763  1.0000
  H   H113      1.0  0.46733  0.81672  0.80156  1.0000
  H   H114      1.0  0.53259  0.81814  0.67473  1.0000
  H   H115      1.0  0.60451  0.80542  0.75149  1.0000
  H   H116      1.0  0.39548  0.80290  0.65002  1.0000
  H   H117      1.0  0.44565  0.83334  0.89039  1.0000
  H   H118      1.0  0.55383  0.80201  0.58748  1.0000
  H   H119      1.0  0.58165  0.79654  0.82842  1.0000
  H   H120      1.0  0.40614  0.80207  0.51305  1.0000
  H   H121      1.0  0.40651  0.81874  0.81352  1.0000
  H   H122      1.0  0.43460  0.81656  0.57434  1.0000
  H   H123      1.0  0.59322  0.81720  0.66365  1.0000
  H   H124      1.0  0.56581  0.81918  0.90349  1.0000
  H   H125      1.0  0.37605  0.77584  0.54183  1.0000
  H   H126      1.0  0.38228  0.79339  0.86614  1.0000
  H   H127      1.0  0.47699  0.80311  0.63428  1.0000
  H   H128      1.0  0.52320  0.83171  0.84258  1.0000
  H   H129      1.0  0.63561  0.80440  0.60323  1.0000
  H   H130      1.0  0.34459  0.77051  0.60296  1.0000
  H   H131      1.0  0.76272  0.32758  0.41237  1.0000
  H   H132      1.0  0.75243  0.32714  0.27541  1.0000
  H   H133      1.0  0.77735  0.31568  0.14944  1.0000
  H   H134      1.0  0.74864  0.29873  0.09141  1.0000
  H   H135      1.0  0.73448  0.29691  0.40460  1.0000
  H   H136      1.0  0.72256  0.28666  0.02160  1.0000
  H   H137      1.0  0.68964  0.26088  0.03157  1.0000
  H   H138      1.0  0.72589  0.26192  0.35301  1.0000
  H   H139      1.0  0.76430  0.32655  0.88966  1.0000
  H   H140      1.0  0.75258  0.32704  0.75088  1.0000
  H   H141      1.0  0.77627  0.31640  0.62719  1.0000
  H   H142      1.0  0.74704  0.30003  0.56918  1.0000
  H   H143      1.0  0.73587  0.29571  0.88150  1.0000
  H   H144      1.0  0.72045  0.28868  0.50014  1.0000
  H   H145      1.0  0.68785  0.26314  0.50971  1.0000
  H   H146      1.0  0.72666  0.26111  0.83028  1.0000
  H   H147      1.0  0.81748  0.47783  0.35816  1.0000
  H   H148      1.0  0.81789  0.52225  0.16496  1.0000
  H   H149      1.0  0.78096  0.36524  0.40541  1.0000
  H   H150      1.0  0.78488  0.38491  0.32190  1.0000
  H   H151      1.0  0.79113  0.64725  0.23490  1.0000
  H   H152      1.0  0.77656  0.63413  0.15045  1.0000
  H   H153      1.0  0.81495  0.61275  0.36505  1.0000
  H   H154      1.0  0.81422  0.54603  0.36537  1.0000
  H   H155      1.0  0.82138  0.45375  0.15746  1.0000
  H   H156      1.0  0.79192  0.38343  0.22724  1.0000
  H   H157      1.0  0.78036  0.39292  0.13804  1.0000
  H   H158      1.0  0.81868  0.47775  0.83507  1.0000
  H   H159      1.0  0.81669  0.52216  0.64182  1.0000
  H   H160      1.0  0.78259  0.36445  0.88248  1.0000
  H   H161      1.0  0.78563  0.38461  0.79774  1.0000
  H   H162      1.0  0.79084  0.64710  0.71174  1.0000
  H   H163      1.0  0.77523  0.63349  0.62671  1.0000
  H   H164      1.0  0.81607  0.61315  0.84294  1.0000
  H   H165      1.0  0.81549  0.54622  0.84231  1.0000
  H   H166      1.0  0.82014  0.45393  0.63475  1.0000
  H   H167      1.0  0.79151  0.38360  0.70338  1.0000
  H   H168      1.0  0.77878  0.39352  0.61403  1.0000
  H   H169      1.0  0.78194  0.68244  0.40508  1.0000
  H   H170      1.0  0.78492  0.65986  0.32499  1.0000
  H   H171      1.0  0.75237  0.70088  0.07215  1.0000
  H   H172      1.0  0.66201  0.77213  0.12605  1.0000
  H   H173      1.0  0.68249  0.73857  0.09113  1.0000
  H   H174      1.0  0.74143  0.70415  0.16553  1.0000
  H   H175      1.0  0.72419  0.73827  0.28933  1.0000
  H   H176      1.0  0.75522  0.71270  0.26159  1.0000
  H   H177      1.0  0.78330  0.68332  0.88344  1.0000
  H   H178      1.0  0.78559  0.66024  0.80205  1.0000
  H   H179      1.0  0.75063  0.69949  0.55038  1.0000
  H   H180      1.0  0.66112  0.77064  0.60301  1.0000
  H   H181      1.0  0.68109  0.73674  0.56776  1.0000
  H   H182      1.0  0.74048  0.70335  0.64210  1.0000
  H   H183      1.0  0.72443  0.73852  0.76614  1.0000
  H   H184      1.0  0.75522  0.71270  0.73870  1.0000
