data_image0
_chemical_formula_structural       O179Si65AlSi22O179Si40AlSi3AlSi43O179Si10AlSi49AlSi25AlSiO108Si17AlSi18AlSi14O108Si15AlSi35O108Si27AlSi2AlSi20O182Si89O182Si22Al2Si65O182Si89O114Si52O114Si5AlSi3AlSi42O114Si41AlSi10O114Si52O114Si52O114Si5AlSi21AlSi24O182Si39AlSi49O182Si15AlSi26AlSi46O182Si26AlSi62O108Si41AlSi9O108Si18AlSi32O108Si26AlSi24O179Si6AlSi14AlSi63AlSi2O179Si17AlSi35AlSi34O179Si15AlSi71AlH276
_chemical_formula_sum              "O3498 Si1648 Al32 H276"
_cell_length_a       60.27
_cell_length_b       59.214
_cell_length_c       39.426
_cell_angle_alpha    90
_cell_angle_beta     90
_cell_angle_gamma    90

_space_group_name_H-M_alt    "P 1"
_space_group_IT_number       1

loop_
  _space_group_symop_operation_xyz
  'x, y, z'

loop_
  _atom_site_type_symbol
  _atom_site_label
  _atom_site_symmetry_multiplicity
  _atom_site_fract_x
  _atom_site_fract_y
  _atom_site_fract_z
  _atom_site_occupancy
  O   O1        1.0  0.16707  0.02330  0.23393  1.0000
  O   O2        1.0  0.33293  0.18997  0.06727  1.0000
  O   O3        1.0  0.16707  0.14337  0.23393  1.0000
  O   O4        1.0  0.16627  0.31003  0.09940  1.0000
  O   O5        1.0  0.00040  0.14337  0.26607  1.0000
  O   O6        1.0  0.16627  0.18997  0.09940  1.0000
  O   O7        1.0  0.00040  0.02330  0.26607  1.0000
  O   O8        1.0  0.12917  0.02477  0.26693  1.0000
  O   O9        1.0  0.03750  0.19143  0.10027  1.0000
  O   O10       1.0  0.12917  0.14190  0.26693  1.0000
  O   O11       1.0  0.03750  0.30857  0.10027  1.0000
  O   O12       1.0  0.20417  0.30857  0.06640  1.0000
  O   O13       1.0  0.29583  0.14190  0.23307  1.0000
  O   O14       1.0  0.20417  0.19143  0.06640  1.0000
  O   O15       1.0  0.29583  0.02477  0.23307  1.0000
  O   O16       1.0  0.13317  0.04553  0.20837  1.0000
  O   O17       1.0  0.03350  0.21220  0.04170  1.0000
  O   O18       1.0  0.13317  0.12113  0.20837  1.0000
  O   O19       1.0  0.03350  0.28780  0.04170  1.0000
  O   O20       1.0  0.20017  0.28780  0.12497  1.0000
  O   O21       1.0  0.29983  0.12113  0.29163  1.0000
  O   O22       1.0  0.20017  0.21220  0.12497  1.0000
  O   O23       1.0  0.29983  0.04553  0.29163  1.0000
  O   O24       1.0  0.13240  0.00113  0.21087  1.0000
  O   O25       1.0  0.03427  0.16780  0.04420  1.0000
  O   O26       1.0  0.13240  0.16553  0.21087  1.0000
  O   O27       1.0  0.03427  0.33220  0.04420  1.0000
  O   O28       1.0  0.20093  0.33220  0.12247  1.0000
  O   O29       1.0  0.29907  0.16553  0.28913  1.0000
  O   O30       1.0  0.20093  0.16780  0.12247  1.0000
  O   O31       1.0  0.29907  0.00113  0.28913  1.0000
  O   O32       1.0  0.10967  0.01283  0.32407  1.0000
  O   O33       1.0  0.05700  0.17950  0.15740  1.0000
  O   O34       1.0  0.10967  0.15383  0.32407  1.0000
  O   O35       1.0  0.05700  0.32050  0.15740  1.0000
  O   O36       1.0  0.27633  0.15383  0.17593  1.0000
  O   O37       1.0  0.22367  0.17950  0.00927  1.0000
  O   O38       1.0  0.27633  0.01283  0.17593  1.0000
  O   O39       1.0  0.10990  0.31850  0.27183  1.0000
  O   O40       1.0  0.05677  0.15183  0.10517  1.0000
  O   O41       1.0  0.10990  0.18150  0.27183  1.0000
  O   O42       1.0  0.05677  0.01483  0.10517  1.0000
  O   O43       1.0  0.22343  0.01483  0.06150  1.0000
  O   O44       1.0  0.27657  0.18150  0.22817  1.0000
  O   O45       1.0  0.22343  0.15183  0.06150  1.0000
  O   O46       1.0  0.08570  0.02210  0.27020  1.0000
  O   O47       1.0  0.08097  0.18877  0.10353  1.0000
  O   O48       1.0  0.08570  0.14457  0.27020  1.0000
  O   O49       1.0  0.08097  0.31123  0.10353  1.0000
  O   O50       1.0  0.25237  0.14457  0.22980  1.0000
  O   O51       1.0  0.24763  0.18877  0.06313  1.0000
  O   O52       1.0  0.25237  0.02210  0.22980  1.0000
  O   O53       1.0  0.09700  0.04320  0.03533  1.0000
  O   O54       1.0  0.06967  0.20987  0.20200  1.0000
  O   O55       1.0  0.09700  0.12347  0.03533  1.0000
  O   O56       1.0  0.06967  0.29013  0.20200  1.0000
  O   O57       1.0  0.23633  0.29013  0.29800  1.0000
  O   O58       1.0  0.26367  0.12347  0.13133  1.0000
  O   O59       1.0  0.23633  0.20987  0.29800  1.0000
  O   O60       1.0  0.26367  0.04320  0.13133  1.0000
  O   O61       1.0  0.06780  0.01517  0.00917  1.0000
  O   O62       1.0  0.09887  0.18183  0.17583  1.0000
  O   O63       1.0  0.06780  0.15150  0.00917  1.0000
  O   O64       1.0  0.09887  0.31817  0.17583  1.0000
  O   O65       1.0  0.23447  0.15150  0.15750  1.0000
  O   O66       1.0  0.26553  0.18183  0.32417  1.0000
  O   O67       1.0  0.23447  0.01517  0.15750  1.0000
  O   O68       1.0  0.09787  0.00033  0.05213  1.0000
  O   O69       1.0  0.06880  0.16700  0.21880  1.0000
  O   O70       1.0  0.09787  0.16633  0.05213  1.0000
  O   O71       1.0  0.06880  0.33300  0.21880  1.0000
  O   O72       1.0  0.26453  0.16633  0.11453  1.0000
  O   O73       1.0  0.23547  0.16700  0.28120  1.0000
  O   O74       1.0  0.26453  0.00033  0.11453  1.0000
  O   O75       1.0  0.03583  0.04217  0.02943  1.0000
  O   O76       1.0  0.13083  0.20883  0.19610  1.0000
  O   O77       1.0  0.03583  0.12450  0.02943  1.0000
  O   O78       1.0  0.13083  0.29117  0.19610  1.0000
  O   O79       1.0  0.20250  0.12450  0.13723  1.0000
  O   O80       1.0  0.29750  0.20883  0.30390  1.0000
  O   O81       1.0  0.20250  0.04217  0.13723  1.0000
  O   O82       1.0  0.02820  0.01233  0.31477  1.0000
  O   O83       1.0  0.13847  0.17900  0.14810  1.0000
  O   O84       1.0  0.02820  0.15433  0.31477  1.0000
  O   O85       1.0  0.13847  0.32100  0.14810  1.0000
  O   O86       1.0  0.19487  0.15433  0.18523  1.0000
  O   O87       1.0  0.30513  0.17900  0.01857  1.0000
  O   O88       1.0  0.19487  0.01233  0.18523  1.0000
  O   O89       1.0  0.04337  0.02603  0.25567  1.0000
  O   O90       1.0  0.12330  0.19270  0.08900  1.0000
  O   O91       1.0  0.04337  0.14063  0.25567  1.0000
  O   O92       1.0  0.12330  0.30730  0.08900  1.0000
  O   O93       1.0  0.21003  0.14063  0.24433  1.0000
  O   O94       1.0  0.28997  0.19270  0.07767  1.0000
  O   O95       1.0  0.21003  0.02603  0.24433  1.0000
  O   O96       1.0  0.02427  0.31963  0.26107  1.0000
  O   O97       1.0  0.14240  0.15297  0.09440  1.0000
  O   O98       1.0  0.02427  0.18037  0.26107  1.0000
  O   O99       1.0  0.14240  0.01370  0.09440  1.0000
  O   O100      1.0  0.30907  0.01370  0.07227  1.0000
  O   O101      1.0  0.19093  0.18037  0.23893  1.0000
  O   O102      1.0  0.30907  0.15297  0.07227  1.0000
  O   O103      1.0  0.19093  0.31963  0.23893  1.0000
  O   O104      1.0  0.07337  0.04377  0.21520  1.0000
  O   O105      1.0  0.09330  0.21043  0.04853  1.0000
  O   O106      1.0  0.07337  0.12290  0.21520  1.0000
  O   O107      1.0  0.09330  0.28957  0.04853  1.0000
  O   O108      1.0  0.24003  0.12290  0.28480  1.0000
  O   O109      1.0  0.25997  0.21043  0.11813  1.0000
  O   O110      1.0  0.24003  0.04377  0.28480  1.0000
  O   O111      1.0  0.16370  0.28493  0.23897  1.0000
  O   O112      1.0  0.00297  0.11827  0.07230  1.0000
  O   O113      1.0  0.16370  0.21507  0.23897  1.0000
  O   O114      1.0  0.00297  0.04840  0.07230  1.0000
  O   O115      1.0  0.16963  0.04840  0.09437  1.0000
  O   O116      1.0  0.33037  0.21507  0.26103  1.0000
  O   O117      1.0  0.16963  0.11827  0.09437  1.0000
  O   O118      1.0  0.12270  0.27703  0.25810  1.0000
  O   O119      1.0  0.04397  0.11037  0.09143  1.0000
  O   O120      1.0  0.12270  0.22297  0.25810  1.0000
  O   O121      1.0  0.04397  0.05630  0.09143  1.0000
  O   O122      1.0  0.21063  0.05630  0.07523  1.0000
  O   O123      1.0  0.28937  0.22297  0.24190  1.0000
  O   O124      1.0  0.21063  0.11037  0.07523  1.0000
  O   O125      1.0  0.14210  0.25000  0.21437  1.0000
  O   O126      1.0  0.02457  0.08333  0.04770  1.0000
  O   O127      1.0  0.19123  0.08333  0.11897  1.0000
  O   O128      1.0  0.30877  0.25000  0.28563  1.0000
  O   O129      1.0  0.10723  0.28703  0.31870  1.0000
  O   O130      1.0  0.05943  0.12037  0.15203  1.0000
  O   O131      1.0  0.10723  0.21297  0.31870  1.0000
  O   O132      1.0  0.05943  0.04630  0.15203  1.0000
  O   O133      1.0  0.22610  0.04630  0.01463  1.0000
  O   O134      1.0  0.27390  0.21297  0.18130  1.0000
  O   O135      1.0  0.22610  0.12037  0.01463  1.0000
  O   O136      1.0  0.08033  0.28607  0.26633  1.0000
  O   O137      1.0  0.08633  0.11940  0.09967  1.0000
  O   O138      1.0  0.08033  0.21393  0.26633  1.0000
  O   O139      1.0  0.08633  0.04727  0.09967  1.0000
  O   O140      1.0  0.25300  0.04727  0.06700  1.0000
  O   O141      1.0  0.24700  0.21393  0.23367  1.0000
  O   O142      1.0  0.25300  0.11940  0.06700  1.0000
  O   O143      1.0  0.24700  0.28607  0.23367  1.0000
  O   O144      1.0  0.09810  0.25000  0.01930  1.0000
  O   O145      1.0  0.06857  0.08333  0.18597  1.0000
  O   O146      1.0  0.23523  0.08333  0.31403  1.0000
  O   O147      1.0  0.26477  0.25000  0.14737  1.0000
  O   O148      1.0  0.06587  0.27710  0.00010  1.0000
  O   O149      1.0  0.10080  0.11043  0.16677  1.0000
  O   O150      1.0  0.06587  0.22290  0.00010  1.0000
  O   O151      1.0  0.10080  0.05623  0.16677  1.0000
  O   O152      1.0  0.26747  0.05623  0.33323  1.0000
  O   O153      1.0  0.23253  0.22290  0.16657  1.0000
  O   O154      1.0  0.26747  0.11043  0.33323  1.0000
  O   O155      1.0  0.23253  0.27710  0.16657  1.0000
  O   O156      1.0  0.03160  0.25000  0.00683  1.0000
  O   O157      1.0  0.13507  0.08333  0.17350  1.0000
  O   O158      1.0  0.30173  0.08333  0.32650  1.0000
  O   O159      1.0  0.19827  0.25000  0.15983  1.0000
  O   O160      1.0  0.02697  0.28900  0.30917  1.0000
  O   O161      1.0  0.13970  0.12233  0.14250  1.0000
  O   O162      1.0  0.02697  0.21100  0.30917  1.0000
  O   O163      1.0  0.13970  0.04433  0.14250  1.0000
  O   O164      1.0  0.30637  0.04433  0.02417  1.0000
  O   O165      1.0  0.19363  0.21100  0.19083  1.0000
  O   O166      1.0  0.30637  0.12233  0.02417  1.0000
  O   O167      1.0  0.19363  0.28900  0.19083  1.0000
  O   O168      1.0  0.03923  0.27900  0.24687  1.0000
  O   O169      1.0  0.12743  0.11233  0.08020  1.0000
  O   O170      1.0  0.03923  0.22100  0.24687  1.0000
  O   O171      1.0  0.12743  0.05433  0.08020  1.0000
  O   O172      1.0  0.29410  0.05433  0.08647  1.0000
  O   O173      1.0  0.20590  0.22100  0.25313  1.0000
  O   O174      1.0  0.29410  0.11233  0.08647  1.0000
  O   O175      1.0  0.20590  0.27900  0.25313  1.0000
  O   O176      1.0  0.07053  0.25000  0.23043  1.0000
  O   O177      1.0  0.09613  0.08333  0.06377  1.0000
  O   O178      1.0  0.26280  0.08333  0.10290  1.0000
  O   O179      1.0  0.23720  0.25000  0.26957  1.0000
  Si  Si1       1.0  0.14047  0.02370  0.22993  1.0000
  Si  Si2       1.0  0.02620  0.19037  0.06327  1.0000
  Si  Si3       1.0  0.14047  0.14297  0.22993  1.0000
  Si  Si4       1.0  0.02620  0.30963  0.06327  1.0000
  Si  Si5       1.0  0.19287  0.30963  0.10340  1.0000
  Si  Si6       1.0  0.30713  0.14297  0.27007  1.0000
  Si  Si7       1.0  0.19287  0.19037  0.10340  1.0000
  Si  Si8       1.0  0.30713  0.02370  0.27007  1.0000
  Si  Si9       1.0  0.10863  0.01120  0.28333  1.0000
  Si  Si10      1.0  0.05803  0.17787  0.11667  1.0000
  Si  Si11      1.0  0.10863  0.15547  0.28333  1.0000
  Si  Si12      1.0  0.05803  0.32213  0.11667  1.0000
  Si  Si13      1.0  0.27530  0.15547  0.21667  1.0000
  Si  Si14      1.0  0.22470  0.17787  0.05000  1.0000
  Si  Si15      1.0  0.27530  0.01120  0.21667  1.0000
  Si  Si16      1.0  0.09307  0.01787  0.02183  1.0000
  Si  Si17      1.0  0.07360  0.18453  0.18850  1.0000
  Si  Si18      1.0  0.09307  0.14880  0.02183  1.0000
  Si  Si19      1.0  0.07360  0.31547  0.18850  1.0000
  Si  Si20      1.0  0.25973  0.14880  0.14483  1.0000
  Si  Si21      1.0  0.24027  0.18453  0.31150  1.0000
  Si  Si22      1.0  0.25973  0.01787  0.14483  1.0000
  Si  Si23      1.0  0.04153  0.01713  0.01603  1.0000
  Si  Si24      1.0  0.12513  0.18380  0.18270  1.0000
  Si  Si25      1.0  0.04153  0.14953  0.01603  1.0000
  Si  Si26      1.0  0.12513  0.31620  0.18270  1.0000
  Si  Si27      1.0  0.20820  0.14953  0.15063  1.0000
  Si  Si28      1.0  0.29180  0.18380  0.31730  1.0000
  Si  Si29      1.0  0.20820  0.01713  0.15063  1.0000
  Si  Si30      1.0  0.02403  0.01200  0.27443  1.0000
  Si  Si31      1.0  0.14263  0.17867  0.10777  1.0000
  Si  Si32      1.0  0.02403  0.15467  0.27443  1.0000
  Si  Si33      1.0  0.14263  0.32133  0.10777  1.0000
  Si  Si34      1.0  0.19070  0.15467  0.22557  1.0000
  Si  Si35      1.0  0.30930  0.17867  0.05890  1.0000
  Si  Si36      1.0  0.19070  0.01200  0.22557  1.0000
  Si  Si37      1.0  0.06780  0.02290  0.23990  1.0000
  Si  Si38      1.0  0.09887  0.18957  0.07323  1.0000
  Si  Si39      1.0  0.06780  0.14377  0.23990  1.0000
  Si  Si40      1.0  0.09887  0.31043  0.07323  1.0000
  Si  Si41      1.0  0.23447  0.14377  0.26010  1.0000
  Si  Si42      1.0  0.26553  0.18957  0.09343  1.0000
  Si  Si43      1.0  0.23447  0.02290  0.26010  1.0000
  Si  Si44      1.0  0.13983  0.27580  0.22683  1.0000
  Si  Si45      1.0  0.02683  0.10913  0.06017  1.0000
  Si  Si46      1.0  0.13983  0.22420  0.22683  1.0000
  Si  Si47      1.0  0.02683  0.05753  0.06017  1.0000
  Si  Si48      1.0  0.19350  0.05753  0.10650  1.0000
  Si  Si49      1.0  0.30650  0.22420  0.27317  1.0000
  Si  Si50      1.0  0.19350  0.10913  0.10650  1.0000
  Si  Si51      1.0  0.10507  0.29217  0.27870  1.0000
  Si  Si52      1.0  0.06160  0.12550  0.11203  1.0000
  Si  Si53      1.0  0.10507  0.20783  0.27870  1.0000
  Si  Si54      1.0  0.06160  0.04117  0.11203  1.0000
  Si  Si55      1.0  0.22827  0.04117  0.05463  1.0000
  Si  Si56      1.0  0.27173  0.20783  0.22130  1.0000
  Si  Si57      1.0  0.22827  0.12550  0.05463  1.0000
  Si  Si58      1.0  0.09110  0.27593  0.01340  1.0000
  Si  Si59      1.0  0.07557  0.10927  0.18007  1.0000
  Si  Si60      1.0  0.09110  0.22407  0.01340  1.0000
  Si  Si61      1.0  0.07557  0.05740  0.18007  1.0000
  Si  Si62      1.0  0.24223  0.05740  0.31993  1.0000
  Si  Si63      1.0  0.25777  0.22407  0.15327  1.0000
  Si  Si64      1.0  0.24223  0.10927  0.31993  1.0000
  Si  Si65      1.0  0.03950  0.27597  0.00610  1.0000
  Al  Al1       1.0  0.12717  0.10930  0.17277  1.0000
  Si  Si66      1.0  0.03950  0.22403  0.00610  1.0000
  Si  Si67      1.0  0.12717  0.05737  0.17277  1.0000
  Si  Si68      1.0  0.29383  0.05737  0.32723  1.0000
  Si  Si69      1.0  0.20617  0.22403  0.16057  1.0000
  Si  Si70      1.0  0.29383  0.10930  0.32723  1.0000
  Si  Si71      1.0  0.20617  0.27597  0.16057  1.0000
  Si  Si72      1.0  0.02190  0.29313  0.26957  1.0000
  Si  Si73      1.0  0.14477  0.12647  0.10290  1.0000
  Si  Si74      1.0  0.02190  0.20687  0.26957  1.0000
  Si  Si75      1.0  0.14477  0.04020  0.10290  1.0000
  Si  Si76      1.0  0.31143  0.04020  0.06377  1.0000
  Si  Si77      1.0  0.18857  0.20687  0.23043  1.0000
  Si  Si78      1.0  0.31143  0.12647  0.06377  1.0000
  Si  Si79      1.0  0.18857  0.29313  0.23043  1.0000
  Si  Si80      1.0  0.06490  0.27627  0.23640  1.0000
  Si  Si81      1.0  0.10177  0.10960  0.06973  1.0000
  Si  Si82      1.0  0.06490  0.22373  0.23640  1.0000
  Si  Si83      1.0  0.10177  0.05707  0.06973  1.0000
  Si  Si84      1.0  0.26843  0.05707  0.09693  1.0000
  Si  Si85      1.0  0.23157  0.22373  0.26360  1.0000
  Si  Si86      1.0  0.26843  0.10960  0.09693  1.0000
  Si  Si87      1.0  0.23157  0.27627  0.26360  1.0000
  O   O180      1.0  0.16707  0.02330  0.56727  1.0000
  O   O181      1.0  0.33293  0.18997  0.40060  1.0000
  O   O182      1.0  0.16707  0.14337  0.56727  1.0000
  O   O183      1.0  0.16627  0.31003  0.43273  1.0000
  O   O184      1.0  0.00040  0.14337  0.59940  1.0000
  O   O185      1.0  0.16627  0.18997  0.43273  1.0000
  O   O186      1.0  0.00040  0.02330  0.59940  1.0000
  O   O187      1.0  0.12917  0.02477  0.60027  1.0000
  O   O188      1.0  0.03750  0.19143  0.43360  1.0000
  O   O189      1.0  0.12917  0.14190  0.60027  1.0000
  O   O190      1.0  0.03750  0.30857  0.43360  1.0000
  O   O191      1.0  0.20417  0.30857  0.39973  1.0000
  O   O192      1.0  0.29583  0.14190  0.56640  1.0000
  O   O193      1.0  0.20417  0.19143  0.39973  1.0000
  O   O194      1.0  0.29583  0.02477  0.56640  1.0000
  O   O195      1.0  0.13317  0.04553  0.54170  1.0000
  O   O196      1.0  0.03350  0.21220  0.37503  1.0000
  O   O197      1.0  0.13317  0.12113  0.54170  1.0000
  O   O198      1.0  0.03350  0.28780  0.37503  1.0000
  O   O199      1.0  0.20017  0.28780  0.45830  1.0000
  O   O200      1.0  0.29983  0.12113  0.62497  1.0000
  O   O201      1.0  0.20017  0.21220  0.45830  1.0000
  O   O202      1.0  0.29983  0.04553  0.62497  1.0000
  O   O203      1.0  0.13240  0.00113  0.54420  1.0000
  O   O204      1.0  0.03427  0.16780  0.37753  1.0000
  O   O205      1.0  0.13240  0.16553  0.54420  1.0000
  O   O206      1.0  0.03427  0.33220  0.37753  1.0000
  O   O207      1.0  0.20093  0.33220  0.45580  1.0000
  O   O208      1.0  0.29907  0.16553  0.62247  1.0000
  O   O209      1.0  0.20093  0.16780  0.45580  1.0000
  O   O210      1.0  0.29907  0.00113  0.62247  1.0000
  O   O211      1.0  0.10967  0.01283  0.65740  1.0000
  O   O212      1.0  0.05700  0.17950  0.49073  1.0000
  O   O213      1.0  0.10967  0.15383  0.65740  1.0000
  O   O214      1.0  0.05700  0.32050  0.49073  1.0000
  O   O215      1.0  0.27633  0.15383  0.50927  1.0000
  O   O216      1.0  0.22367  0.17950  0.34260  1.0000
  O   O217      1.0  0.27633  0.01283  0.50927  1.0000
  O   O218      1.0  0.10990  0.31850  0.60517  1.0000
  O   O219      1.0  0.05677  0.15183  0.43850  1.0000
  O   O220      1.0  0.10990  0.18150  0.60517  1.0000
  O   O221      1.0  0.05677  0.01483  0.43850  1.0000
  O   O222      1.0  0.22343  0.01483  0.39483  1.0000
  O   O223      1.0  0.27657  0.18150  0.56150  1.0000
  O   O224      1.0  0.22343  0.15183  0.39483  1.0000
  O   O225      1.0  0.08570  0.02210  0.60353  1.0000
  O   O226      1.0  0.08097  0.18877  0.43687  1.0000
  O   O227      1.0  0.08570  0.14457  0.60353  1.0000
  O   O228      1.0  0.08097  0.31123  0.43687  1.0000
  O   O229      1.0  0.25237  0.14457  0.56313  1.0000
  O   O230      1.0  0.24763  0.18877  0.39647  1.0000
  O   O231      1.0  0.25237  0.02210  0.56313  1.0000
  O   O232      1.0  0.09700  0.04320  0.36867  1.0000
  O   O233      1.0  0.06967  0.20987  0.53533  1.0000
  O   O234      1.0  0.09700  0.12347  0.36867  1.0000
  O   O235      1.0  0.06967  0.29013  0.53533  1.0000
  O   O236      1.0  0.23633  0.29013  0.63133  1.0000
  O   O237      1.0  0.26367  0.12347  0.46467  1.0000
  O   O238      1.0  0.23633  0.20987  0.63133  1.0000
  O   O239      1.0  0.26367  0.04320  0.46467  1.0000
  O   O240      1.0  0.06780  0.01517  0.34250  1.0000
  O   O241      1.0  0.09887  0.18183  0.50917  1.0000
  O   O242      1.0  0.06780  0.15150  0.34250  1.0000
  O   O243      1.0  0.09887  0.31817  0.50917  1.0000
  O   O244      1.0  0.23447  0.15150  0.49083  1.0000
  O   O245      1.0  0.26553  0.18183  0.65750  1.0000
  O   O246      1.0  0.23447  0.01517  0.49083  1.0000
  O   O247      1.0  0.09787  0.00033  0.38547  1.0000
  O   O248      1.0  0.06880  0.16700  0.55213  1.0000
  O   O249      1.0  0.09787  0.16633  0.38547  1.0000
  O   O250      1.0  0.06880  0.33300  0.55213  1.0000
  O   O251      1.0  0.26453  0.16633  0.44787  1.0000
  O   O252      1.0  0.23547  0.16700  0.61453  1.0000
  O   O253      1.0  0.26453  0.00033  0.44787  1.0000
  O   O254      1.0  0.03583  0.04217  0.36277  1.0000
  O   O255      1.0  0.13083  0.20883  0.52943  1.0000
  O   O256      1.0  0.03583  0.12450  0.36277  1.0000
  O   O257      1.0  0.13083  0.29117  0.52943  1.0000
  O   O258      1.0  0.20250  0.12450  0.47057  1.0000
  O   O259      1.0  0.29750  0.20883  0.63723  1.0000
  O   O260      1.0  0.20250  0.04217  0.47057  1.0000
  O   O261      1.0  0.02820  0.01233  0.64810  1.0000
  O   O262      1.0  0.13847  0.17900  0.48143  1.0000
  O   O263      1.0  0.02820  0.15433  0.64810  1.0000
  O   O264      1.0  0.13847  0.32100  0.48143  1.0000
  O   O265      1.0  0.19487  0.15433  0.51857  1.0000
  O   O266      1.0  0.30513  0.17900  0.35190  1.0000
  O   O267      1.0  0.19487  0.01233  0.51857  1.0000
  O   O268      1.0  0.04337  0.02603  0.58900  1.0000
  O   O269      1.0  0.12330  0.19270  0.42233  1.0000
  O   O270      1.0  0.04337  0.14063  0.58900  1.0000
  O   O271      1.0  0.12330  0.30730  0.42233  1.0000
  O   O272      1.0  0.21003  0.14063  0.57767  1.0000
  O   O273      1.0  0.28997  0.19270  0.41100  1.0000
  O   O274      1.0  0.21003  0.02603  0.57767  1.0000
  O   O275      1.0  0.02427  0.31963  0.59440  1.0000
  O   O276      1.0  0.14240  0.15297  0.42773  1.0000
  O   O277      1.0  0.02427  0.18037  0.59440  1.0000
  O   O278      1.0  0.14240  0.01370  0.42773  1.0000
  O   O279      1.0  0.30907  0.01370  0.40560  1.0000
  O   O280      1.0  0.19093  0.18037  0.57227  1.0000
  O   O281      1.0  0.30907  0.15297  0.40560  1.0000
  O   O282      1.0  0.19093  0.31963  0.57227  1.0000
  O   O283      1.0  0.07337  0.04377  0.54853  1.0000
  O   O284      1.0  0.09330  0.21043  0.38187  1.0000
  O   O285      1.0  0.07337  0.12290  0.54853  1.0000
  O   O286      1.0  0.09330  0.28957  0.38187  1.0000
  O   O287      1.0  0.24003  0.12290  0.61813  1.0000
  O   O288      1.0  0.25997  0.21043  0.45147  1.0000
  O   O289      1.0  0.24003  0.04377  0.61813  1.0000
  O   O290      1.0  0.16370  0.28493  0.57230  1.0000
  O   O291      1.0  0.00297  0.11827  0.40563  1.0000
  O   O292      1.0  0.16370  0.21507  0.57230  1.0000
  O   O293      1.0  0.00297  0.04840  0.40563  1.0000
  O   O294      1.0  0.16963  0.04840  0.42770  1.0000
  O   O295      1.0  0.33037  0.21507  0.59437  1.0000
  O   O296      1.0  0.16963  0.11827  0.42770  1.0000
  O   O297      1.0  0.12270  0.27703  0.59143  1.0000
  O   O298      1.0  0.04397  0.11037  0.42477  1.0000
  O   O299      1.0  0.12270  0.22297  0.59143  1.0000
  O   O300      1.0  0.04397  0.05630  0.42477  1.0000
  O   O301      1.0  0.21063  0.05630  0.40857  1.0000
  O   O302      1.0  0.28937  0.22297  0.57523  1.0000
  O   O303      1.0  0.21063  0.11037  0.40857  1.0000
  O   O304      1.0  0.14210  0.25000  0.54770  1.0000
  O   O305      1.0  0.02457  0.08333  0.38103  1.0000
  O   O306      1.0  0.19123  0.08333  0.45230  1.0000
  O   O307      1.0  0.30877  0.25000  0.61897  1.0000
  O   O308      1.0  0.10723  0.28703  0.65203  1.0000
  O   O309      1.0  0.05943  0.12037  0.48537  1.0000
  O   O310      1.0  0.10723  0.21297  0.65203  1.0000
  O   O311      1.0  0.05943  0.04630  0.48537  1.0000
  O   O312      1.0  0.22610  0.04630  0.34797  1.0000
  O   O313      1.0  0.27390  0.21297  0.51463  1.0000
  O   O314      1.0  0.22610  0.12037  0.34797  1.0000
  O   O315      1.0  0.08033  0.28607  0.59967  1.0000
  O   O316      1.0  0.08633  0.11940  0.43300  1.0000
  O   O317      1.0  0.08033  0.21393  0.59967  1.0000
  O   O318      1.0  0.08633  0.04727  0.43300  1.0000
  O   O319      1.0  0.25300  0.04727  0.40033  1.0000
  O   O320      1.0  0.24700  0.21393  0.56700  1.0000
  O   O321      1.0  0.25300  0.11940  0.40033  1.0000
  O   O322      1.0  0.24700  0.28607  0.56700  1.0000
  O   O323      1.0  0.09810  0.25000  0.35263  1.0000
  O   O324      1.0  0.06857  0.08333  0.51930  1.0000
  O   O325      1.0  0.23523  0.08333  0.64737  1.0000
  O   O326      1.0  0.26477  0.25000  0.48070  1.0000
  O   O327      1.0  0.06587  0.27710  0.33343  1.0000
  O   O328      1.0  0.10080  0.11043  0.50010  1.0000
  O   O329      1.0  0.06587  0.22290  0.33343  1.0000
  O   O330      1.0  0.10080  0.05623  0.50010  1.0000
  O   O331      1.0  0.26747  0.05623  0.66657  1.0000
  O   O332      1.0  0.23253  0.22290  0.49990  1.0000
  O   O333      1.0  0.26747  0.11043  0.66657  1.0000
  O   O334      1.0  0.23253  0.27710  0.49990  1.0000
  O   O335      1.0  0.03160  0.25000  0.34017  1.0000
  O   O336      1.0  0.13507  0.08333  0.50683  1.0000
  O   O337      1.0  0.30173  0.08333  0.65983  1.0000
  O   O338      1.0  0.19827  0.25000  0.49317  1.0000
  O   O339      1.0  0.02697  0.28900  0.64250  1.0000
  O   O340      1.0  0.13970  0.12233  0.47583  1.0000
  O   O341      1.0  0.02697  0.21100  0.64250  1.0000
  O   O342      1.0  0.13970  0.04433  0.47583  1.0000
  O   O343      1.0  0.30637  0.04433  0.35750  1.0000
  O   O344      1.0  0.19363  0.21100  0.52417  1.0000
  O   O345      1.0  0.30637  0.12233  0.35750  1.0000
  O   O346      1.0  0.19363  0.28900  0.52417  1.0000
  O   O347      1.0  0.03923  0.27900  0.58020  1.0000
  O   O348      1.0  0.12743  0.11233  0.41353  1.0000
  O   O349      1.0  0.03923  0.22100  0.58020  1.0000
  O   O350      1.0  0.12743  0.05433  0.41353  1.0000
  O   O351      1.0  0.29410  0.05433  0.41980  1.0000
  O   O352      1.0  0.20590  0.22100  0.58647  1.0000
  O   O353      1.0  0.29410  0.11233  0.41980  1.0000
  O   O354      1.0  0.20590  0.27900  0.58647  1.0000
  O   O355      1.0  0.07053  0.25000  0.56377  1.0000
  O   O356      1.0  0.09613  0.08333  0.39710  1.0000
  O   O357      1.0  0.26280  0.08333  0.43623  1.0000
  O   O358      1.0  0.23720  0.25000  0.60290  1.0000
  Si  Si88      1.0  0.14047  0.02370  0.56327  1.0000
  Si  Si89      1.0  0.02620  0.19037  0.39660  1.0000
  Si  Si90      1.0  0.14047  0.14297  0.56327  1.0000
  Si  Si91      1.0  0.02620  0.30963  0.39660  1.0000
  Si  Si92      1.0  0.19287  0.30963  0.43673  1.0000
  Si  Si93      1.0  0.30713  0.14297  0.60340  1.0000
  Si  Si94      1.0  0.19287  0.19037  0.43673  1.0000
  Si  Si95      1.0  0.30713  0.02370  0.60340  1.0000
  Si  Si96      1.0  0.10863  0.01120  0.61667  1.0000
  Si  Si97      1.0  0.05803  0.17787  0.45000  1.0000
  Si  Si98      1.0  0.10863  0.15547  0.61667  1.0000
  Si  Si99      1.0  0.05803  0.32213  0.45000  1.0000
  Si  Si100     1.0  0.27530  0.15547  0.55000  1.0000
  Si  Si101     1.0  0.22470  0.17787  0.38333  1.0000
  Si  Si102     1.0  0.27530  0.01120  0.55000  1.0000
  Si  Si103     1.0  0.09307  0.01787  0.35517  1.0000
  Si  Si104     1.0  0.07360  0.18453  0.52183  1.0000
  Si  Si105     1.0  0.09307  0.14880  0.35517  1.0000
  Si  Si106     1.0  0.07360  0.31547  0.52183  1.0000
  Si  Si107     1.0  0.25973  0.14880  0.47817  1.0000
  Si  Si108     1.0  0.24027  0.18453  0.64483  1.0000
  Si  Si109     1.0  0.25973  0.01787  0.47817  1.0000
  Si  Si110     1.0  0.04153  0.01713  0.34937  1.0000
  Si  Si111     1.0  0.12513  0.18380  0.51603  1.0000
  Si  Si112     1.0  0.04153  0.14953  0.34937  1.0000
  Si  Si113     1.0  0.12513  0.31620  0.51603  1.0000
  Si  Si114     1.0  0.20820  0.14953  0.48397  1.0000
  Si  Si115     1.0  0.29180  0.18380  0.65063  1.0000
  Si  Si116     1.0  0.20820  0.01713  0.48397  1.0000
  Si  Si117     1.0  0.02403  0.01200  0.60777  1.0000
  Si  Si118     1.0  0.14263  0.17867  0.44110  1.0000
  Si  Si119     1.0  0.02403  0.15467  0.60777  1.0000
  Si  Si120     1.0  0.14263  0.32133  0.44110  1.0000
  Si  Si121     1.0  0.19070  0.15467  0.55890  1.0000
  Si  Si122     1.0  0.30930  0.17867  0.39223  1.0000
  Si  Si123     1.0  0.19070  0.01200  0.55890  1.0000
  Si  Si124     1.0  0.06780  0.02290  0.57323  1.0000
  Si  Si125     1.0  0.09887  0.18957  0.40657  1.0000
  Si  Si126     1.0  0.06780  0.14377  0.57323  1.0000
  Si  Si127     1.0  0.09887  0.31043  0.40657  1.0000
  Al  Al2       1.0  0.23447  0.14377  0.59343  1.0000
  Si  Si128     1.0  0.26553  0.18957  0.42677  1.0000
  Si  Si129     1.0  0.23447  0.02290  0.59343  1.0000
  Si  Si130     1.0  0.13983  0.27580  0.56017  1.0000
  Al  Al3       1.0  0.02683  0.10913  0.39350  1.0000
  Si  Si131     1.0  0.13983  0.22420  0.56017  1.0000
  Si  Si132     1.0  0.02683  0.05753  0.39350  1.0000
  Si  Si133     1.0  0.19350  0.05753  0.43983  1.0000
  Si  Si134     1.0  0.30650  0.22420  0.60650  1.0000
  Si  Si135     1.0  0.19350  0.10913  0.43983  1.0000
  Si  Si136     1.0  0.10507  0.29217  0.61203  1.0000
  Si  Si137     1.0  0.06160  0.12550  0.44537  1.0000
  Si  Si138     1.0  0.10507  0.20783  0.61203  1.0000
  Si  Si139     1.0  0.06160  0.04117  0.44537  1.0000
  Si  Si140     1.0  0.22827  0.04117  0.38797  1.0000
  Si  Si141     1.0  0.27173  0.20783  0.55463  1.0000
  Si  Si142     1.0  0.22827  0.12550  0.38797  1.0000
  Si  Si143     1.0  0.09110  0.27593  0.34673  1.0000
  Si  Si144     1.0  0.07557  0.10927  0.51340  1.0000
  Si  Si145     1.0  0.09110  0.22407  0.34673  1.0000
  Si  Si146     1.0  0.07557  0.05740  0.51340  1.0000
  Si  Si147     1.0  0.24223  0.05740  0.65327  1.0000
  Si  Si148     1.0  0.25777  0.22407  0.48660  1.0000
  Si  Si149     1.0  0.24223  0.10927  0.65327  1.0000
  Si  Si150     1.0  0.03950  0.27597  0.33943  1.0000
  Si  Si151     1.0  0.12717  0.10930  0.50610  1.0000
  Si  Si152     1.0  0.03950  0.22403  0.33943  1.0000
  Si  Si153     1.0  0.12717  0.05737  0.50610  1.0000
  Si  Si154     1.0  0.29383  0.05737  0.66057  1.0000
  Si  Si155     1.0  0.20617  0.22403  0.49390  1.0000
  Si  Si156     1.0  0.29383  0.10930  0.66057  1.0000
  Si  Si157     1.0  0.20617  0.27597  0.49390  1.0000
  Si  Si158     1.0  0.02190  0.29313  0.60290  1.0000
  Si  Si159     1.0  0.14477  0.12647  0.43623  1.0000
  Si  Si160     1.0  0.02190  0.20687  0.60290  1.0000
  Si  Si161     1.0  0.14477  0.04020  0.43623  1.0000
  Si  Si162     1.0  0.31143  0.04020  0.39710  1.0000
  Si  Si163     1.0  0.18857  0.20687  0.56377  1.0000
  Si  Si164     1.0  0.31143  0.12647  0.39710  1.0000
  Si  Si165     1.0  0.18857  0.29313  0.56377  1.0000
  Si  Si166     1.0  0.06490  0.27627  0.56973  1.0000
  Si  Si167     1.0  0.10177  0.10960  0.40307  1.0000
  Si  Si168     1.0  0.06490  0.22373  0.56973  1.0000
  Si  Si169     1.0  0.10177  0.05707  0.40307  1.0000
  Si  Si170     1.0  0.26843  0.05707  0.43027  1.0000
  Si  Si171     1.0  0.23157  0.22373  0.59693  1.0000
  Si  Si172     1.0  0.26843  0.10960  0.43027  1.0000
  Si  Si173     1.0  0.23157  0.27627  0.59693  1.0000
  O   O359      1.0  0.16707  0.02330  0.90060  1.0000
  O   O360      1.0  0.33293  0.18997  0.73393  1.0000
  O   O361      1.0  0.16707  0.14337  0.90060  1.0000
  O   O362      1.0  0.16627  0.31003  0.76607  1.0000
  O   O363      1.0  0.00040  0.14337  0.93273  1.0000
  O   O364      1.0  0.16627  0.18997  0.76607  1.0000
  O   O365      1.0  0.00040  0.02330  0.93273  1.0000
  O   O366      1.0  0.12917  0.02477  0.93360  1.0000
  O   O367      1.0  0.03750  0.19143  0.76693  1.0000
  O   O368      1.0  0.12917  0.14190  0.93360  1.0000
  O   O369      1.0  0.03750  0.30857  0.76693  1.0000
  O   O370      1.0  0.20417  0.30857  0.73307  1.0000
  O   O371      1.0  0.29583  0.14190  0.89973  1.0000
  O   O372      1.0  0.20417  0.19143  0.73307  1.0000
  O   O373      1.0  0.29583  0.02477  0.89973  1.0000
  O   O374      1.0  0.13317  0.04553  0.87503  1.0000
  O   O375      1.0  0.03350  0.21220  0.70837  1.0000
  O   O376      1.0  0.13317  0.12113  0.87503  1.0000
  O   O377      1.0  0.03350  0.28780  0.70837  1.0000
  O   O378      1.0  0.20017  0.28780  0.79163  1.0000
  O   O379      1.0  0.29983  0.12113  0.95830  1.0000
  O   O380      1.0  0.20017  0.21220  0.79163  1.0000
  O   O381      1.0  0.29983  0.04553  0.95830  1.0000
  O   O382      1.0  0.13240  0.00113  0.87753  1.0000
  O   O383      1.0  0.03427  0.16780  0.71087  1.0000
  O   O384      1.0  0.13240  0.16553  0.87753  1.0000
  O   O385      1.0  0.03427  0.33220  0.71087  1.0000
  O   O386      1.0  0.20093  0.33220  0.78913  1.0000
  O   O387      1.0  0.29907  0.16553  0.95580  1.0000
  O   O388      1.0  0.20093  0.16780  0.78913  1.0000
  O   O389      1.0  0.29907  0.00113  0.95580  1.0000
  O   O390      1.0  0.10967  0.01283  0.99073  1.0000
  O   O391      1.0  0.05700  0.17950  0.82407  1.0000
  O   O392      1.0  0.10967  0.15383  0.99073  1.0000
  O   O393      1.0  0.05700  0.32050  0.82407  1.0000
  O   O394      1.0  0.27633  0.15383  0.84260  1.0000
  O   O395      1.0  0.22367  0.17950  0.67593  1.0000
  O   O396      1.0  0.27633  0.01283  0.84260  1.0000
  O   O397      1.0  0.10990  0.31850  0.93850  1.0000
  O   O398      1.0  0.05677  0.15183  0.77183  1.0000
  O   O399      1.0  0.10990  0.18150  0.93850  1.0000
  O   O400      1.0  0.05677  0.01483  0.77183  1.0000
  O   O401      1.0  0.22343  0.01483  0.72817  1.0000
  O   O402      1.0  0.27657  0.18150  0.89483  1.0000
  O   O403      1.0  0.22343  0.15183  0.72817  1.0000
  O   O404      1.0  0.08570  0.02210  0.93687  1.0000
  O   O405      1.0  0.08097  0.18877  0.77020  1.0000
  O   O406      1.0  0.08570  0.14457  0.93687  1.0000
  O   O407      1.0  0.08097  0.31123  0.77020  1.0000
  O   O408      1.0  0.25237  0.14457  0.89647  1.0000
  O   O409      1.0  0.24763  0.18877  0.72980  1.0000
  O   O410      1.0  0.25237  0.02210  0.89647  1.0000
  O   O411      1.0  0.09700  0.04320  0.70200  1.0000
  O   O412      1.0  0.06967  0.20987  0.86867  1.0000
  O   O413      1.0  0.09700  0.12347  0.70200  1.0000
  O   O414      1.0  0.06967  0.29013  0.86867  1.0000
  O   O415      1.0  0.23633  0.29013  0.96467  1.0000
  O   O416      1.0  0.26367  0.12347  0.79800  1.0000
  O   O417      1.0  0.23633  0.20987  0.96467  1.0000
  O   O418      1.0  0.26367  0.04320  0.79800  1.0000
  O   O419      1.0  0.06780  0.01517  0.67583  1.0000
  O   O420      1.0  0.09887  0.18183  0.84250  1.0000
  O   O421      1.0  0.06780  0.15150  0.67583  1.0000
  O   O422      1.0  0.09887  0.31817  0.84250  1.0000
  O   O423      1.0  0.23447  0.15150  0.82417  1.0000
  O   O424      1.0  0.26553  0.18183  0.99083  1.0000
  O   O425      1.0  0.23447  0.01517  0.82417  1.0000
  O   O426      1.0  0.09787  0.00033  0.71880  1.0000
  O   O427      1.0  0.06880  0.16700  0.88547  1.0000
  O   O428      1.0  0.09787  0.16633  0.71880  1.0000
  O   O429      1.0  0.06880  0.33300  0.88547  1.0000
  O   O430      1.0  0.26453  0.16633  0.78120  1.0000
  O   O431      1.0  0.23547  0.16700  0.94787  1.0000
  O   O432      1.0  0.26453  0.00033  0.78120  1.0000
  O   O433      1.0  0.03583  0.04217  0.69610  1.0000
  O   O434      1.0  0.13083  0.20883  0.86277  1.0000
  O   O435      1.0  0.03583  0.12450  0.69610  1.0000
  O   O436      1.0  0.13083  0.29117  0.86277  1.0000
  O   O437      1.0  0.20250  0.12450  0.80390  1.0000
  O   O438      1.0  0.29750  0.20883  0.97057  1.0000
  O   O439      1.0  0.20250  0.04217  0.80390  1.0000
  O   O440      1.0  0.02820  0.01233  0.98143  1.0000
  O   O441      1.0  0.13847  0.17900  0.81477  1.0000
  O   O442      1.0  0.02820  0.15433  0.98143  1.0000
  O   O443      1.0  0.13847  0.32100  0.81477  1.0000
  O   O444      1.0  0.19487  0.15433  0.85190  1.0000
  O   O445      1.0  0.30513  0.17900  0.68523  1.0000
  O   O446      1.0  0.19487  0.01233  0.85190  1.0000
  O   O447      1.0  0.04337  0.02603  0.92233  1.0000
  O   O448      1.0  0.12330  0.19270  0.75567  1.0000
  O   O449      1.0  0.04337  0.14063  0.92233  1.0000
  O   O450      1.0  0.12330  0.30730  0.75567  1.0000
  O   O451      1.0  0.21003  0.14063  0.91100  1.0000
  O   O452      1.0  0.28997  0.19270  0.74433  1.0000
  O   O453      1.0  0.21003  0.02603  0.91100  1.0000
  O   O454      1.0  0.02427  0.31963  0.92773  1.0000
  O   O455      1.0  0.14240  0.15297  0.76107  1.0000
  O   O456      1.0  0.02427  0.18037  0.92773  1.0000
  O   O457      1.0  0.14240  0.01370  0.76107  1.0000
  O   O458      1.0  0.30907  0.01370  0.73893  1.0000
  O   O459      1.0  0.19093  0.18037  0.90560  1.0000
  O   O460      1.0  0.30907  0.15297  0.73893  1.0000
  O   O461      1.0  0.19093  0.31963  0.90560  1.0000
  O   O462      1.0  0.07337  0.04377  0.88187  1.0000
  O   O463      1.0  0.09330  0.21043  0.71520  1.0000
  O   O464      1.0  0.07337  0.12290  0.88187  1.0000
  O   O465      1.0  0.09330  0.28957  0.71520  1.0000
  O   O466      1.0  0.24003  0.12290  0.95147  1.0000
  O   O467      1.0  0.25997  0.21043  0.78480  1.0000
  O   O468      1.0  0.24003  0.04377  0.95147  1.0000
  O   O469      1.0  0.16370  0.28493  0.90563  1.0000
  O   O470      1.0  0.00297  0.11827  0.73897  1.0000
  O   O471      1.0  0.16370  0.21507  0.90563  1.0000
  O   O472      1.0  0.00297  0.04840  0.73897  1.0000
  O   O473      1.0  0.16963  0.04840  0.76103  1.0000
  O   O474      1.0  0.33037  0.21507  0.92770  1.0000
  O   O475      1.0  0.16963  0.11827  0.76103  1.0000
  O   O476      1.0  0.12270  0.27703  0.92477  1.0000
  O   O477      1.0  0.04397  0.11037  0.75810  1.0000
  O   O478      1.0  0.12270  0.22297  0.92477  1.0000
  O   O479      1.0  0.04397  0.05630  0.75810  1.0000
  O   O480      1.0  0.21063  0.05630  0.74190  1.0000
  O   O481      1.0  0.28937  0.22297  0.90857  1.0000
  O   O482      1.0  0.21063  0.11037  0.74190  1.0000
  O   O483      1.0  0.14210  0.25000  0.88103  1.0000
  O   O484      1.0  0.02457  0.08333  0.71437  1.0000
  O   O485      1.0  0.19123  0.08333  0.78563  1.0000
  O   O486      1.0  0.30877  0.25000  0.95230  1.0000
  O   O487      1.0  0.10723  0.28703  0.98537  1.0000
  O   O488      1.0  0.05943  0.12037  0.81870  1.0000
  O   O489      1.0  0.10723  0.21297  0.98537  1.0000
  O   O490      1.0  0.05943  0.04630  0.81870  1.0000
  O   O491      1.0  0.22610  0.04630  0.68130  1.0000
  O   O492      1.0  0.27390  0.21297  0.84797  1.0000
  O   O493      1.0  0.22610  0.12037  0.68130  1.0000
  O   O494      1.0  0.08033  0.28607  0.93300  1.0000
  O   O495      1.0  0.08633  0.11940  0.76633  1.0000
  O   O496      1.0  0.08033  0.21393  0.93300  1.0000
  O   O497      1.0  0.08633  0.04727  0.76633  1.0000
  O   O498      1.0  0.25300  0.04727  0.73367  1.0000
  O   O499      1.0  0.24700  0.21393  0.90033  1.0000
  O   O500      1.0  0.25300  0.11940  0.73367  1.0000
  O   O501      1.0  0.24700  0.28607  0.90033  1.0000
  O   O502      1.0  0.09810  0.25000  0.68597  1.0000
  O   O503      1.0  0.06857  0.08333  0.85263  1.0000
  O   O504      1.0  0.23523  0.08333  0.98070  1.0000
  O   O505      1.0  0.26477  0.25000  0.81403  1.0000
  O   O506      1.0  0.06587  0.27710  0.66677  1.0000
  O   O507      1.0  0.10080  0.11043  0.83343  1.0000
  O   O508      1.0  0.06587  0.22290  0.66677  1.0000
  O   O509      1.0  0.10080  0.05623  0.83343  1.0000
  O   O510      1.0  0.26747  0.05623  0.99990  1.0000
  O   O511      1.0  0.23253  0.22290  0.83323  1.0000
  O   O512      1.0  0.26747  0.11043  0.99990  1.0000
  O   O513      1.0  0.23253  0.27710  0.83323  1.0000
  O   O514      1.0  0.03160  0.25000  0.67350  1.0000
  O   O515      1.0  0.13507  0.08333  0.84017  1.0000
  O   O516      1.0  0.30173  0.08333  0.99317  1.0000
  O   O517      1.0  0.19827  0.25000  0.82650  1.0000
  O   O518      1.0  0.02697  0.28900  0.97583  1.0000
  O   O519      1.0  0.13970  0.12233  0.80917  1.0000
  O   O520      1.0  0.02697  0.21100  0.97583  1.0000
  O   O521      1.0  0.13970  0.04433  0.80917  1.0000
  O   O522      1.0  0.30637  0.04433  0.69083  1.0000
  O   O523      1.0  0.19363  0.21100  0.85750  1.0000
  O   O524      1.0  0.30637  0.12233  0.69083  1.0000
  O   O525      1.0  0.19363  0.28900  0.85750  1.0000
  O   O526      1.0  0.03923  0.27900  0.91353  1.0000
  O   O527      1.0  0.12743  0.11233  0.74687  1.0000
  O   O528      1.0  0.03923  0.22100  0.91353  1.0000
  O   O529      1.0  0.12743  0.05433  0.74687  1.0000
  O   O530      1.0  0.29410  0.05433  0.75313  1.0000
  O   O531      1.0  0.20590  0.22100  0.91980  1.0000
  O   O532      1.0  0.29410  0.11233  0.75313  1.0000
  O   O533      1.0  0.20590  0.27900  0.91980  1.0000
  O   O534      1.0  0.07053  0.25000  0.89710  1.0000
  O   O535      1.0  0.09613  0.08333  0.73043  1.0000
  O   O536      1.0  0.26280  0.08333  0.76957  1.0000
  O   O537      1.0  0.23720  0.25000  0.93623  1.0000
  Si  Si174     1.0  0.14047  0.02370  0.89660  1.0000
  Si  Si175     1.0  0.02620  0.19037  0.72993  1.0000
  Si  Si176     1.0  0.14047  0.14297  0.89660  1.0000
  Si  Si177     1.0  0.02620  0.30963  0.72993  1.0000
  Si  Si178     1.0  0.19287  0.30963  0.77007  1.0000
  Si  Si179     1.0  0.30713  0.14297  0.93673  1.0000
  Si  Si180     1.0  0.19287  0.19037  0.77007  1.0000
  Si  Si181     1.0  0.30713  0.02370  0.93673  1.0000
  Si  Si182     1.0  0.10863  0.01120  0.95000  1.0000
  Si  Si183     1.0  0.05803  0.17787  0.78333  1.0000
  Al  Al4       1.0  0.10863  0.15547  0.95000  1.0000
  Si  Si184     1.0  0.05803  0.32213  0.78333  1.0000
  Si  Si185     1.0  0.27530  0.15547  0.88333  1.0000
  Si  Si186     1.0  0.22470  0.17787  0.71667  1.0000
  Si  Si187     1.0  0.27530  0.01120  0.88333  1.0000
  Si  Si188     1.0  0.09307  0.01787  0.68850  1.0000
  Si  Si189     1.0  0.07360  0.18453  0.85517  1.0000
  Si  Si190     1.0  0.09307  0.14880  0.68850  1.0000
  Si  Si191     1.0  0.07360  0.31547  0.85517  1.0000
  Si  Si192     1.0  0.25973  0.14880  0.81150  1.0000
  Si  Si193     1.0  0.24027  0.18453  0.97817  1.0000
  Si  Si194     1.0  0.25973  0.01787  0.81150  1.0000
  Si  Si195     1.0  0.04153  0.01713  0.68270  1.0000
  Si  Si196     1.0  0.12513  0.18380  0.84937  1.0000
  Si  Si197     1.0  0.04153  0.14953  0.68270  1.0000
  Si  Si198     1.0  0.12513  0.31620  0.84937  1.0000
  Si  Si199     1.0  0.20820  0.14953  0.81730  1.0000
  Si  Si200     1.0  0.29180  0.18380  0.98397  1.0000
  Si  Si201     1.0  0.20820  0.01713  0.81730  1.0000
  Si  Si202     1.0  0.02403  0.01200  0.94110  1.0000
  Si  Si203     1.0  0.14263  0.17867  0.77443  1.0000
  Si  Si204     1.0  0.02403  0.15467  0.94110  1.0000
  Si  Si205     1.0  0.14263  0.32133  0.77443  1.0000
  Si  Si206     1.0  0.19070  0.15467  0.89223  1.0000
  Si  Si207     1.0  0.30930  0.17867  0.72557  1.0000
  Si  Si208     1.0  0.19070  0.01200  0.89223  1.0000
  Si  Si209     1.0  0.06780  0.02290  0.90657  1.0000
  Si  Si210     1.0  0.09887  0.18957  0.73990  1.0000
  Si  Si211     1.0  0.06780  0.14377  0.90657  1.0000
  Si  Si212     1.0  0.09887  0.31043  0.73990  1.0000
  Si  Si213     1.0  0.23447  0.14377  0.92677  1.0000
  Si  Si214     1.0  0.26553  0.18957  0.76010  1.0000
  Si  Si215     1.0  0.23447  0.02290  0.92677  1.0000
  Si  Si216     1.0  0.13983  0.27580  0.89350  1.0000
  Si  Si217     1.0  0.02683  0.10913  0.72683  1.0000
  Si  Si218     1.0  0.13983  0.22420  0.89350  1.0000
  Si  Si219     1.0  0.02683  0.05753  0.72683  1.0000
  Si  Si220     1.0  0.19350  0.05753  0.77317  1.0000
  Si  Si221     1.0  0.30650  0.22420  0.93983  1.0000
  Si  Si222     1.0  0.19350  0.10913  0.77317  1.0000
  Si  Si223     1.0  0.10507  0.29217  0.94537  1.0000
  Si  Si224     1.0  0.06160  0.12550  0.77870  1.0000
  Si  Si225     1.0  0.10507  0.20783  0.94537  1.0000
  Si  Si226     1.0  0.06160  0.04117  0.77870  1.0000
  Si  Si227     1.0  0.22827  0.04117  0.72130  1.0000
  Si  Si228     1.0  0.27173  0.20783  0.88797  1.0000
  Si  Si229     1.0  0.22827  0.12550  0.72130  1.0000
  Si  Si230     1.0  0.09110  0.27593  0.68007  1.0000
  Si  Si231     1.0  0.07557  0.10927  0.84673  1.0000
  Si  Si232     1.0  0.09110  0.22407  0.68007  1.0000
  Al  Al5       1.0  0.07557  0.05740  0.84673  1.0000
  Si  Si233     1.0  0.24223  0.05740  0.98660  1.0000
  Si  Si234     1.0  0.25777  0.22407  0.81993  1.0000
  Si  Si235     1.0  0.24223  0.10927  0.98660  1.0000
  Si  Si236     1.0  0.03950  0.27597  0.67277  1.0000
  Si  Si237     1.0  0.12717  0.10930  0.83943  1.0000
  Si  Si238     1.0  0.03950  0.22403  0.67277  1.0000
  Si  Si239     1.0  0.12717  0.05737  0.83943  1.0000
  Si  Si240     1.0  0.29383  0.05737  0.99390  1.0000
  Si  Si241     1.0  0.20617  0.22403  0.82723  1.0000
  Si  Si242     1.0  0.29383  0.10930  0.99390  1.0000
  Si  Si243     1.0  0.20617  0.27597  0.82723  1.0000
  Si  Si244     1.0  0.02190  0.29313  0.93623  1.0000
  Si  Si245     1.0  0.14477  0.12647  0.76957  1.0000
  Si  Si246     1.0  0.02190  0.20687  0.93623  1.0000
  Si  Si247     1.0  0.14477  0.04020  0.76957  1.0000
  Si  Si248     1.0  0.31143  0.04020  0.73043  1.0000
  Si  Si249     1.0  0.18857  0.20687  0.89710  1.0000
  Si  Si250     1.0  0.31143  0.12647  0.73043  1.0000
  Si  Si251     1.0  0.18857  0.29313  0.89710  1.0000
  Si  Si252     1.0  0.06490  0.27627  0.90307  1.0000
  Si  Si253     1.0  0.10177  0.10960  0.73640  1.0000
  Si  Si254     1.0  0.06490  0.22373  0.90307  1.0000
  Si  Si255     1.0  0.10177  0.05707  0.73640  1.0000
  Si  Si256     1.0  0.26843  0.05707  0.76360  1.0000
  Si  Si257     1.0  0.23157  0.22373  0.93027  1.0000
  Al  Al6       1.0  0.26843  0.10960  0.76360  1.0000
  Si  Si258     1.0  0.23157  0.27627  0.93027  1.0000
  O   O538      1.0  0.16707  0.35663  0.23393  1.0000
  O   O539      1.0  0.16707  0.47670  0.23393  1.0000
  O   O540      1.0  0.16627  0.64337  0.09940  1.0000
  O   O541      1.0  0.00040  0.47670  0.26607  1.0000
  O   O542      1.0  0.16627  0.52330  0.09940  1.0000
  O   O543      1.0  0.00040  0.35663  0.26607  1.0000
  O   O544      1.0  0.12917  0.35810  0.26693  1.0000
  O   O545      1.0  0.03750  0.52477  0.10027  1.0000
  O   O546      1.0  0.12917  0.47523  0.26693  1.0000
  O   O547      1.0  0.03750  0.64190  0.10027  1.0000
  O   O548      1.0  0.20417  0.64190  0.06640  1.0000
  O   O549      1.0  0.13317  0.37887  0.20837  1.0000
  O   O550      1.0  0.03350  0.54553  0.04170  1.0000
  O   O551      1.0  0.13317  0.45447  0.20837  1.0000
  O   O552      1.0  0.03350  0.62113  0.04170  1.0000
  O   O553      1.0  0.20017  0.62113  0.12497  1.0000
  O   O554      1.0  0.13240  0.33447  0.21087  1.0000
  O   O555      1.0  0.03427  0.50113  0.04420  1.0000
  O   O556      1.0  0.13240  0.49887  0.21087  1.0000
  O   O557      1.0  0.03427  0.66553  0.04420  1.0000
  O   O558      1.0  0.20093  0.66553  0.12247  1.0000
  O   O559      1.0  0.10967  0.34617  0.32407  1.0000
  O   O560      1.0  0.05700  0.51283  0.15740  1.0000
  O   O561      1.0  0.10967  0.48717  0.32407  1.0000
  O   O562      1.0  0.05700  0.65383  0.15740  1.0000
  O   O563      1.0  0.10990  0.65183  0.27183  1.0000
  O   O564      1.0  0.05677  0.48517  0.10517  1.0000
  O   O565      1.0  0.10990  0.51483  0.27183  1.0000
  O   O566      1.0  0.05677  0.34817  0.10517  1.0000
  O   O567      1.0  0.08570  0.35543  0.27020  1.0000
  O   O568      1.0  0.08097  0.52210  0.10353  1.0000
  O   O569      1.0  0.08570  0.47790  0.27020  1.0000
  O   O570      1.0  0.08097  0.64457  0.10353  1.0000
  O   O571      1.0  0.09700  0.37653  0.03533  1.0000
  O   O572      1.0  0.06967  0.54320  0.20200  1.0000
  O   O573      1.0  0.09700  0.45680  0.03533  1.0000
  O   O574      1.0  0.06967  0.62347  0.20200  1.0000
  O   O575      1.0  0.06780  0.34850  0.00917  1.0000
  O   O576      1.0  0.09887  0.51517  0.17583  1.0000
  O   O577      1.0  0.06780  0.48483  0.00917  1.0000
  O   O578      1.0  0.09887  0.65150  0.17583  1.0000
  O   O579      1.0  0.09787  0.33367  0.05213  1.0000
  O   O580      1.0  0.06880  0.50033  0.21880  1.0000
  O   O581      1.0  0.09787  0.49967  0.05213  1.0000
  O   O582      1.0  0.06880  0.66633  0.21880  1.0000
  O   O583      1.0  0.03583  0.37550  0.02943  1.0000
  O   O584      1.0  0.13083  0.54217  0.19610  1.0000
  O   O585      1.0  0.03583  0.45783  0.02943  1.0000
  O   O586      1.0  0.13083  0.62450  0.19610  1.0000
  O   O587      1.0  0.02820  0.34567  0.31477  1.0000
  O   O588      1.0  0.13847  0.51233  0.14810  1.0000
  O   O589      1.0  0.02820  0.48767  0.31477  1.0000
  O   O590      1.0  0.13847  0.65433  0.14810  1.0000
  O   O591      1.0  0.19487  0.34567  0.18523  1.0000
  O   O592      1.0  0.04337  0.35937  0.25567  1.0000
  O   O593      1.0  0.12330  0.52603  0.08900  1.0000
  O   O594      1.0  0.04337  0.47397  0.25567  1.0000
  O   O595      1.0  0.12330  0.64063  0.08900  1.0000
  O   O596      1.0  0.21003  0.35937  0.24433  1.0000
  O   O597      1.0  0.02427  0.65297  0.26107  1.0000
  O   O598      1.0  0.14240  0.48630  0.09440  1.0000
  O   O599      1.0  0.02427  0.51370  0.26107  1.0000
  O   O600      1.0  0.14240  0.34703  0.09440  1.0000
  O   O601      1.0  0.19093  0.65297  0.23893  1.0000
  O   O602      1.0  0.07337  0.37710  0.21520  1.0000
  O   O603      1.0  0.09330  0.54377  0.04853  1.0000
  O   O604      1.0  0.07337  0.45623  0.21520  1.0000
  O   O605      1.0  0.09330  0.62290  0.04853  1.0000
  O   O606      1.0  0.16370  0.61827  0.23897  1.0000
  O   O607      1.0  0.00297  0.45160  0.07230  1.0000
  O   O608      1.0  0.16370  0.54840  0.23897  1.0000
  O   O609      1.0  0.00297  0.38173  0.07230  1.0000
  O   O610      1.0  0.16963  0.38173  0.09437  1.0000
  O   O611      1.0  0.16963  0.45160  0.09437  1.0000
  O   O612      1.0  0.12270  0.61037  0.25810  1.0000
  O   O613      1.0  0.04397  0.44370  0.09143  1.0000
  O   O614      1.0  0.12270  0.55630  0.25810  1.0000
  O   O615      1.0  0.04397  0.38963  0.09143  1.0000
  O   O616      1.0  0.14210  0.58333  0.21437  1.0000
  O   O617      1.0  0.02457  0.41667  0.04770  1.0000
  O   O618      1.0  0.10723  0.62037  0.31870  1.0000
  O   O619      1.0  0.05943  0.45370  0.15203  1.0000
  O   O620      1.0  0.10723  0.54630  0.31870  1.0000
  O   O621      1.0  0.05943  0.37963  0.15203  1.0000
  O   O622      1.0  0.08033  0.61940  0.26633  1.0000
  O   O623      1.0  0.08633  0.45273  0.09967  1.0000
  O   O624      1.0  0.08033  0.54727  0.26633  1.0000
  O   O625      1.0  0.08633  0.38060  0.09967  1.0000
  O   O626      1.0  0.09810  0.58333  0.01930  1.0000
  O   O627      1.0  0.06857  0.41667  0.18597  1.0000
  O   O628      1.0  0.06587  0.61043  0.00010  1.0000
  O   O629      1.0  0.10080  0.44377  0.16677  1.0000
  O   O630      1.0  0.06587  0.55623  0.00010  1.0000
  O   O631      1.0  0.10080  0.38957  0.16677  1.0000
  O   O632      1.0  0.03160  0.58333  0.00683  1.0000
  O   O633      1.0  0.13507  0.41667  0.17350  1.0000
  O   O634      1.0  0.02697  0.62233  0.30917  1.0000
  O   O635      1.0  0.13970  0.45567  0.14250  1.0000
  O   O636      1.0  0.02697  0.54433  0.30917  1.0000
  O   O637      1.0  0.13970  0.37767  0.14250  1.0000
  O   O638      1.0  0.19363  0.62233  0.19083  1.0000
  O   O639      1.0  0.03923  0.61233  0.24687  1.0000
  O   O640      1.0  0.12743  0.44567  0.08020  1.0000
  O   O641      1.0  0.03923  0.55433  0.24687  1.0000
  O   O642      1.0  0.12743  0.38767  0.08020  1.0000
  O   O643      1.0  0.20590  0.61233  0.25313  1.0000
  O   O644      1.0  0.07053  0.58333  0.23043  1.0000
  O   O645      1.0  0.09613  0.41667  0.06377  1.0000
  Si  Si259     1.0  0.14047  0.35703  0.22993  1.0000
  Si  Si260     1.0  0.02620  0.52370  0.06327  1.0000
  Si  Si261     1.0  0.14047  0.47630  0.22993  1.0000
  Si  Si262     1.0  0.02620  0.64297  0.06327  1.0000
  Si  Si263     1.0  0.19287  0.64297  0.10340  1.0000
  Si  Si264     1.0  0.10863  0.34453  0.28333  1.0000
  Si  Si265     1.0  0.05803  0.51120  0.11667  1.0000
  Si  Si266     1.0  0.10863  0.48880  0.28333  1.0000
  Si  Si267     1.0  0.05803  0.65547  0.11667  1.0000
  Si  Si268     1.0  0.09307  0.35120  0.02183  1.0000
  Si  Si269     1.0  0.07360  0.51787  0.18850  1.0000
  Si  Si270     1.0  0.09307  0.48213  0.02183  1.0000
  Si  Si271     1.0  0.07360  0.64880  0.18850  1.0000
  Si  Si272     1.0  0.04153  0.35047  0.01603  1.0000
  Si  Si273     1.0  0.12513  0.51713  0.18270  1.0000
  Si  Si274     1.0  0.04153  0.48287  0.01603  1.0000
  Si  Si275     1.0  0.12513  0.64953  0.18270  1.0000
  Al  Al7       1.0  0.02403  0.34533  0.27443  1.0000
  Si  Si276     1.0  0.14263  0.51200  0.10777  1.0000
  Si  Si277     1.0  0.02403  0.48800  0.27443  1.0000
  Si  Si278     1.0  0.14263  0.65467  0.10777  1.0000
  Si  Si279     1.0  0.19070  0.34533  0.22557  1.0000
  Si  Si280     1.0  0.06780  0.35623  0.23990  1.0000
  Si  Si281     1.0  0.09887  0.52290  0.07323  1.0000
  Si  Si282     1.0  0.06780  0.47710  0.23990  1.0000
  Si  Si283     1.0  0.09887  0.64377  0.07323  1.0000
  Si  Si284     1.0  0.13983  0.60913  0.22683  1.0000
  Si  Si285     1.0  0.02683  0.44247  0.06017  1.0000
  Si  Si286     1.0  0.13983  0.55753  0.22683  1.0000
  Si  Si287     1.0  0.02683  0.39087  0.06017  1.0000
  Si  Si288     1.0  0.10507  0.62550  0.27870  1.0000
  Si  Si289     1.0  0.06160  0.45883  0.11203  1.0000
  Si  Si290     1.0  0.10507  0.54117  0.27870  1.0000
  Si  Si291     1.0  0.06160  0.37450  0.11203  1.0000
  Si  Si292     1.0  0.09110  0.60927  0.01340  1.0000
  Si  Si293     1.0  0.07557  0.44260  0.18007  1.0000
  Al  Al8       1.0  0.09110  0.55740  0.01340  1.0000
  Si  Si294     1.0  0.07557  0.39073  0.18007  1.0000
  Si  Si295     1.0  0.03950  0.60930  0.00610  1.0000
  Si  Si296     1.0  0.12717  0.44263  0.17277  1.0000
  Si  Si297     1.0  0.03950  0.55737  0.00610  1.0000
  Si  Si298     1.0  0.12717  0.39070  0.17277  1.0000
  Si  Si299     1.0  0.02190  0.62647  0.26957  1.0000
  Si  Si300     1.0  0.14477  0.45980  0.10290  1.0000
  Si  Si301     1.0  0.02190  0.54020  0.26957  1.0000
  Si  Si302     1.0  0.14477  0.37353  0.10290  1.0000
  Si  Si303     1.0  0.18857  0.62647  0.23043  1.0000
  Si  Si304     1.0  0.06490  0.60960  0.23640  1.0000
  Si  Si305     1.0  0.10177  0.44293  0.06973  1.0000
  Si  Si306     1.0  0.06490  0.55707  0.23640  1.0000
  Si  Si307     1.0  0.10177  0.39040  0.06973  1.0000
  O   O646      1.0  0.16707  0.35663  0.56727  1.0000
  O   O647      1.0  0.16707  0.47670  0.56727  1.0000
  O   O648      1.0  0.16627  0.64337  0.43273  1.0000
  O   O649      1.0  0.00040  0.47670  0.59940  1.0000
  O   O650      1.0  0.16627  0.52330  0.43273  1.0000
  O   O651      1.0  0.00040  0.35663  0.59940  1.0000
  O   O652      1.0  0.12917  0.35810  0.60027  1.0000
  O   O653      1.0  0.03750  0.52477  0.43360  1.0000
  O   O654      1.0  0.12917  0.47523  0.60027  1.0000
  O   O655      1.0  0.03750  0.64190  0.43360  1.0000
  O   O656      1.0  0.20417  0.64190  0.39973  1.0000
  O   O657      1.0  0.13317  0.37887  0.54170  1.0000
  O   O658      1.0  0.03350  0.54553  0.37503  1.0000
  O   O659      1.0  0.13317  0.45447  0.54170  1.0000
  O   O660      1.0  0.03350  0.62113  0.37503  1.0000
  O   O661      1.0  0.20017  0.62113  0.45830  1.0000
  O   O662      1.0  0.13240  0.33447  0.54420  1.0000
  O   O663      1.0  0.03427  0.50113  0.37753  1.0000
  O   O664      1.0  0.13240  0.49887  0.54420  1.0000
  O   O665      1.0  0.03427  0.66553  0.37753  1.0000
  O   O666      1.0  0.20093  0.66553  0.45580  1.0000
  O   O667      1.0  0.10967  0.34617  0.65740  1.0000
  O   O668      1.0  0.05700  0.51283  0.49073  1.0000
  O   O669      1.0  0.10967  0.48717  0.65740  1.0000
  O   O670      1.0  0.05700  0.65383  0.49073  1.0000
  O   O671      1.0  0.10990  0.65183  0.60517  1.0000
  O   O672      1.0  0.05677  0.48517  0.43850  1.0000
  O   O673      1.0  0.10990  0.51483  0.60517  1.0000
  O   O674      1.0  0.05677  0.34817  0.43850  1.0000
  O   O675      1.0  0.08570  0.35543  0.60353  1.0000
  O   O676      1.0  0.08097  0.52210  0.43687  1.0000
  O   O677      1.0  0.08570  0.47790  0.60353  1.0000
  O   O678      1.0  0.08097  0.64457  0.43687  1.0000
  O   O679      1.0  0.09700  0.37653  0.36867  1.0000
  O   O680      1.0  0.06967  0.54320  0.53533  1.0000
  O   O681      1.0  0.09700  0.45680  0.36867  1.0000
  O   O682      1.0  0.06967  0.62347  0.53533  1.0000
  O   O683      1.0  0.06780  0.34850  0.34250  1.0000
  O   O684      1.0  0.09887  0.51517  0.50917  1.0000
  O   O685      1.0  0.06780  0.48483  0.34250  1.0000
  O   O686      1.0  0.09887  0.65150  0.50917  1.0000
  O   O687      1.0  0.09787  0.33367  0.38547  1.0000
  O   O688      1.0  0.06880  0.50033  0.55213  1.0000
  O   O689      1.0  0.09787  0.49967  0.38547  1.0000
  O   O690      1.0  0.06880  0.66633  0.55213  1.0000
  O   O691      1.0  0.03583  0.37550  0.36277  1.0000
  O   O692      1.0  0.13083  0.54217  0.52943  1.0000
  O   O693      1.0  0.03583  0.45783  0.36277  1.0000
  O   O694      1.0  0.13083  0.62450  0.52943  1.0000
  O   O695      1.0  0.02820  0.34567  0.64810  1.0000
  O   O696      1.0  0.13847  0.51233  0.48143  1.0000
  O   O697      1.0  0.02820  0.48767  0.64810  1.0000
  O   O698      1.0  0.13847  0.65433  0.48143  1.0000
  O   O699      1.0  0.19487  0.34567  0.51857  1.0000
  O   O700      1.0  0.04337  0.35937  0.58900  1.0000
  O   O701      1.0  0.12330  0.52603  0.42233  1.0000
  O   O702      1.0  0.04337  0.47397  0.58900  1.0000
  O   O703      1.0  0.12330  0.64063  0.42233  1.0000
  O   O704      1.0  0.21003  0.35937  0.57767  1.0000
  O   O705      1.0  0.02427  0.65297  0.59440  1.0000
  O   O706      1.0  0.14240  0.48630  0.42773  1.0000
  O   O707      1.0  0.02427  0.51370  0.59440  1.0000
  O   O708      1.0  0.14240  0.34703  0.42773  1.0000
  O   O709      1.0  0.19093  0.65297  0.57227  1.0000
  O   O710      1.0  0.07337  0.37710  0.54853  1.0000
  O   O711      1.0  0.09330  0.54377  0.38187  1.0000
  O   O712      1.0  0.07337  0.45623  0.54853  1.0000
  O   O713      1.0  0.09330  0.62290  0.38187  1.0000
  O   O714      1.0  0.16370  0.61827  0.57230  1.0000
  O   O715      1.0  0.00297  0.45160  0.40563  1.0000
  O   O716      1.0  0.16370  0.54840  0.57230  1.0000
  O   O717      1.0  0.00297  0.38173  0.40563  1.0000
  O   O718      1.0  0.16963  0.38173  0.42770  1.0000
  O   O719      1.0  0.16963  0.45160  0.42770  1.0000
  O   O720      1.0  0.12270  0.61037  0.59143  1.0000
  O   O721      1.0  0.04397  0.44370  0.42477  1.0000
  O   O722      1.0  0.12270  0.55630  0.59143  1.0000
  O   O723      1.0  0.04397  0.38963  0.42477  1.0000
  O   O724      1.0  0.14210  0.58333  0.54770  1.0000
  O   O725      1.0  0.02457  0.41667  0.38103  1.0000
  O   O726      1.0  0.10723  0.62037  0.65203  1.0000
  O   O727      1.0  0.05943  0.45370  0.48537  1.0000
  O   O728      1.0  0.10723  0.54630  0.65203  1.0000
  O   O729      1.0  0.05943  0.37963  0.48537  1.0000
  O   O730      1.0  0.08033  0.61940  0.59967  1.0000
  O   O731      1.0  0.08633  0.45273  0.43300  1.0000
  O   O732      1.0  0.08033  0.54727  0.59967  1.0000
  O   O733      1.0  0.08633  0.38060  0.43300  1.0000
  O   O734      1.0  0.09810  0.58333  0.35263  1.0000
  O   O735      1.0  0.06857  0.41667  0.51930  1.0000
  O   O736      1.0  0.06587  0.61043  0.33343  1.0000
  O   O737      1.0  0.10080  0.44377  0.50010  1.0000
  O   O738      1.0  0.06587  0.55623  0.33343  1.0000
  O   O739      1.0  0.10080  0.38957  0.50010  1.0000
  O   O740      1.0  0.03160  0.58333  0.34017  1.0000
  O   O741      1.0  0.13507  0.41667  0.50683  1.0000
  O   O742      1.0  0.02697  0.62233  0.64250  1.0000
  O   O743      1.0  0.13970  0.45567  0.47583  1.0000
  O   O744      1.0  0.02697  0.54433  0.64250  1.0000
  O   O745      1.0  0.13970  0.37767  0.47583  1.0000
  O   O746      1.0  0.19363  0.62233  0.52417  1.0000
  O   O747      1.0  0.03923  0.61233  0.58020  1.0000
  O   O748      1.0  0.12743  0.44567  0.41353  1.0000
  O   O749      1.0  0.03923  0.55433  0.58020  1.0000
  O   O750      1.0  0.12743  0.38767  0.41353  1.0000
  O   O751      1.0  0.20590  0.61233  0.58647  1.0000
  O   O752      1.0  0.07053  0.58333  0.56377  1.0000
  O   O753      1.0  0.09613  0.41667  0.39710  1.0000
  Si  Si308     1.0  0.14047  0.35703  0.56327  1.0000
  Si  Si309     1.0  0.02620  0.52370  0.39660  1.0000
  Si  Si310     1.0  0.14047  0.47630  0.56327  1.0000
  Si  Si311     1.0  0.02620  0.64297  0.39660  1.0000
  Si  Si312     1.0  0.19287  0.64297  0.43673  1.0000
  Si  Si313     1.0  0.10863  0.34453  0.61667  1.0000
  Si  Si314     1.0  0.05803  0.51120  0.45000  1.0000
  Si  Si315     1.0  0.10863  0.48880  0.61667  1.0000
  Si  Si316     1.0  0.05803  0.65547  0.45000  1.0000
  Si  Si317     1.0  0.09307  0.35120  0.35517  1.0000
  Si  Si318     1.0  0.07360  0.51787  0.52183  1.0000
  Si  Si319     1.0  0.09307  0.48213  0.35517  1.0000
  Si  Si320     1.0  0.07360  0.64880  0.52183  1.0000
  Si  Si321     1.0  0.04153  0.35047  0.34937  1.0000
  Si  Si322     1.0  0.12513  0.51713  0.51603  1.0000
  Al  Al9       1.0  0.04153  0.48287  0.34937  1.0000
  Si  Si323     1.0  0.12513  0.64953  0.51603  1.0000
  Si  Si324     1.0  0.02403  0.34533  0.60777  1.0000
  Si  Si325     1.0  0.14263  0.51200  0.44110  1.0000
  Si  Si326     1.0  0.02403  0.48800  0.60777  1.0000
  Si  Si327     1.0  0.14263  0.65467  0.44110  1.0000
  Si  Si328     1.0  0.19070  0.34533  0.55890  1.0000
  Si  Si329     1.0  0.06780  0.35623  0.57323  1.0000
  Si  Si330     1.0  0.09887  0.52290  0.40657  1.0000
  Si  Si331     1.0  0.06780  0.47710  0.57323  1.0000
  Si  Si332     1.0  0.09887  0.64377  0.40657  1.0000
  Si  Si333     1.0  0.13983  0.60913  0.56017  1.0000
  Si  Si334     1.0  0.02683  0.44247  0.39350  1.0000
  Si  Si335     1.0  0.13983  0.55753  0.56017  1.0000
  Si  Si336     1.0  0.02683  0.39087  0.39350  1.0000
  Si  Si337     1.0  0.10507  0.62550  0.61203  1.0000
  Si  Si338     1.0  0.06160  0.45883  0.44537  1.0000
  Si  Si339     1.0  0.10507  0.54117  0.61203  1.0000
  Si  Si340     1.0  0.06160  0.37450  0.44537  1.0000
  Si  Si341     1.0  0.09110  0.60927  0.34673  1.0000
  Si  Si342     1.0  0.07557  0.44260  0.51340  1.0000
  Si  Si343     1.0  0.09110  0.55740  0.34673  1.0000
  Si  Si344     1.0  0.07557  0.39073  0.51340  1.0000
  Si  Si345     1.0  0.03950  0.60930  0.33943  1.0000
  Si  Si346     1.0  0.12717  0.44263  0.50610  1.0000
  Si  Si347     1.0  0.03950  0.55737  0.33943  1.0000
  Si  Si348     1.0  0.12717  0.39070  0.50610  1.0000
  Si  Si349     1.0  0.02190  0.62647  0.60290  1.0000
  Si  Si350     1.0  0.14477  0.45980  0.43623  1.0000
  Si  Si351     1.0  0.02190  0.54020  0.60290  1.0000
  Si  Si352     1.0  0.14477  0.37353  0.43623  1.0000
  Si  Si353     1.0  0.18857  0.62647  0.56377  1.0000
  Si  Si354     1.0  0.06490  0.60960  0.56973  1.0000
  Si  Si355     1.0  0.10177  0.44293  0.40307  1.0000
  Si  Si356     1.0  0.06490  0.55707  0.56973  1.0000
  Si  Si357     1.0  0.10177  0.39040  0.40307  1.0000
  O   O754      1.0  0.16707  0.35663  0.90060  1.0000
  O   O755      1.0  0.16707  0.47670  0.90060  1.0000
  O   O756      1.0  0.16627  0.64337  0.76607  1.0000
  O   O757      1.0  0.00040  0.47670  0.93273  1.0000
  O   O758      1.0  0.16627  0.52330  0.76607  1.0000
  O   O759      1.0  0.00040  0.35663  0.93273  1.0000
  O   O760      1.0  0.12917  0.35810  0.93360  1.0000
  O   O761      1.0  0.03750  0.52477  0.76693  1.0000
  O   O762      1.0  0.12917  0.47523  0.93360  1.0000
  O   O763      1.0  0.03750  0.64190  0.76693  1.0000
  O   O764      1.0  0.20417  0.64190  0.73307  1.0000
  O   O765      1.0  0.13317  0.37887  0.87503  1.0000
  O   O766      1.0  0.03350  0.54553  0.70837  1.0000
  O   O767      1.0  0.13317  0.45447  0.87503  1.0000
  O   O768      1.0  0.03350  0.62113  0.70837  1.0000
  O   O769      1.0  0.20017  0.62113  0.79163  1.0000
  O   O770      1.0  0.13240  0.33447  0.87753  1.0000
  O   O771      1.0  0.03427  0.50113  0.71087  1.0000
  O   O772      1.0  0.13240  0.49887  0.87753  1.0000
  O   O773      1.0  0.03427  0.66553  0.71087  1.0000
  O   O774      1.0  0.20093  0.66553  0.78913  1.0000
  O   O775      1.0  0.10967  0.34617  0.99073  1.0000
  O   O776      1.0  0.05700  0.51283  0.82407  1.0000
  O   O777      1.0  0.10967  0.48717  0.99073  1.0000
  O   O778      1.0  0.05700  0.65383  0.82407  1.0000
  O   O779      1.0  0.10990  0.65183  0.93850  1.0000
  O   O780      1.0  0.05677  0.48517  0.77183  1.0000
  O   O781      1.0  0.10990  0.51483  0.93850  1.0000
  O   O782      1.0  0.05677  0.34817  0.77183  1.0000
  O   O783      1.0  0.08570  0.35543  0.93687  1.0000
  O   O784      1.0  0.08097  0.52210  0.77020  1.0000
  O   O785      1.0  0.08570  0.47790  0.93687  1.0000
  O   O786      1.0  0.08097  0.64457  0.77020  1.0000
  O   O787      1.0  0.09700  0.37653  0.70200  1.0000
  O   O788      1.0  0.06967  0.54320  0.86867  1.0000
  O   O789      1.0  0.09700  0.45680  0.70200  1.0000
  O   O790      1.0  0.06967  0.62347  0.86867  1.0000
  O   O791      1.0  0.06780  0.34850  0.67583  1.0000
  O   O792      1.0  0.09887  0.51517  0.84250  1.0000
  O   O793      1.0  0.06780  0.48483  0.67583  1.0000
  O   O794      1.0  0.09887  0.65150  0.84250  1.0000
  O   O795      1.0  0.09787  0.33367  0.71880  1.0000
  O   O796      1.0  0.06880  0.50033  0.88547  1.0000
  O   O797      1.0  0.09787  0.49967  0.71880  1.0000
  O   O798      1.0  0.06880  0.66633  0.88547  1.0000
  O   O799      1.0  0.03583  0.37550  0.69610  1.0000
  O   O800      1.0  0.13083  0.54217  0.86277  1.0000
  O   O801      1.0  0.03583  0.45783  0.69610  1.0000
  O   O802      1.0  0.13083  0.62450  0.86277  1.0000
  O   O803      1.0  0.02820  0.34567  0.98143  1.0000
  O   O804      1.0  0.13847  0.51233  0.81477  1.0000
  O   O805      1.0  0.02820  0.48767  0.98143  1.0000
  O   O806      1.0  0.13847  0.65433  0.81477  1.0000
  O   O807      1.0  0.19487  0.34567  0.85190  1.0000
  O   O808      1.0  0.04337  0.35937  0.92233  1.0000
  O   O809      1.0  0.12330  0.52603  0.75567  1.0000
  O   O810      1.0  0.04337  0.47397  0.92233  1.0000
  O   O811      1.0  0.12330  0.64063  0.75567  1.0000
  O   O812      1.0  0.21003  0.35937  0.91100  1.0000
  O   O813      1.0  0.02427  0.65297  0.92773  1.0000
  O   O814      1.0  0.14240  0.48630  0.76107  1.0000
  O   O815      1.0  0.02427  0.51370  0.92773  1.0000
  O   O816      1.0  0.14240  0.34703  0.76107  1.0000
  O   O817      1.0  0.19093  0.65297  0.90560  1.0000
  O   O818      1.0  0.07337  0.37710  0.88187  1.0000
  O   O819      1.0  0.09330  0.54377  0.71520  1.0000
  O   O820      1.0  0.07337  0.45623  0.88187  1.0000
  O   O821      1.0  0.09330  0.62290  0.71520  1.0000
  O   O822      1.0  0.16370  0.61827  0.90563  1.0000
  O   O823      1.0  0.00297  0.45160  0.73897  1.0000
  O   O824      1.0  0.16370  0.54840  0.90563  1.0000
  O   O825      1.0  0.00297  0.38173  0.73897  1.0000
  O   O826      1.0  0.16963  0.38173  0.76103  1.0000
  O   O827      1.0  0.16963  0.45160  0.76103  1.0000
  O   O828      1.0  0.12270  0.61037  0.92477  1.0000
  O   O829      1.0  0.04397  0.44370  0.75810  1.0000
  O   O830      1.0  0.12270  0.55630  0.92477  1.0000
  O   O831      1.0  0.04397  0.38963  0.75810  1.0000
  O   O832      1.0  0.14210  0.58333  0.88103  1.0000
  O   O833      1.0  0.02457  0.41667  0.71437  1.0000
  O   O834      1.0  0.10723  0.62037  0.98537  1.0000
  O   O835      1.0  0.05943  0.45370  0.81870  1.0000
  O   O836      1.0  0.10723  0.54630  0.98537  1.0000
  O   O837      1.0  0.05943  0.37963  0.81870  1.0000
  O   O838      1.0  0.08033  0.61940  0.93300  1.0000
  O   O839      1.0  0.08633  0.45273  0.76633  1.0000
  O   O840      1.0  0.08033  0.54727  0.93300  1.0000
  O   O841      1.0  0.08633  0.38060  0.76633  1.0000
  O   O842      1.0  0.09810  0.58333  0.68597  1.0000
  O   O843      1.0  0.06857  0.41667  0.85263  1.0000
  O   O844      1.0  0.06587  0.61043  0.66677  1.0000
  O   O845      1.0  0.10080  0.44377  0.83343  1.0000
  O   O846      1.0  0.06587  0.55623  0.66677  1.0000
  O   O847      1.0  0.10080  0.38957  0.83343  1.0000
  O   O848      1.0  0.03160  0.58333  0.67350  1.0000
  O   O849      1.0  0.13507  0.41667  0.84017  1.0000
  O   O850      1.0  0.02697  0.62233  0.97583  1.0000
  O   O851      1.0  0.13970  0.45567  0.80917  1.0000
  O   O852      1.0  0.02697  0.54433  0.97583  1.0000
  O   O853      1.0  0.13970  0.37767  0.80917  1.0000
  O   O854      1.0  0.19363  0.62233  0.85750  1.0000
  O   O855      1.0  0.03923  0.61233  0.91353  1.0000
  O   O856      1.0  0.12743  0.44567  0.74687  1.0000
  O   O857      1.0  0.03923  0.55433  0.91353  1.0000
  O   O858      1.0  0.12743  0.38767  0.74687  1.0000
  O   O859      1.0  0.20590  0.61233  0.91980  1.0000
  O   O860      1.0  0.07053  0.58333  0.89710  1.0000
  O   O861      1.0  0.09613  0.41667  0.73043  1.0000
  Si  Si358     1.0  0.14047  0.35703  0.89660  1.0000
  Si  Si359     1.0  0.02620  0.52370  0.72993  1.0000
  Si  Si360     1.0  0.14047  0.47630  0.89660  1.0000
  Si  Si361     1.0  0.02620  0.64297  0.72993  1.0000
  Si  Si362     1.0  0.19287  0.64297  0.77007  1.0000
  Si  Si363     1.0  0.10863  0.34453  0.95000  1.0000
  Si  Si364     1.0  0.05803  0.51120  0.78333  1.0000
  Si  Si365     1.0  0.10863  0.48880  0.95000  1.0000
  Si  Si366     1.0  0.05803  0.65547  0.78333  1.0000
  Si  Si367     1.0  0.09307  0.35120  0.68850  1.0000
  Si  Si368     1.0  0.07360  0.51787  0.85517  1.0000
  Si  Si369     1.0  0.09307  0.48213  0.68850  1.0000
  Si  Si370     1.0  0.07360  0.64880  0.85517  1.0000
  Si  Si371     1.0  0.04153  0.35047  0.68270  1.0000
  Si  Si372     1.0  0.12513  0.51713  0.84937  1.0000
  Si  Si373     1.0  0.04153  0.48287  0.68270  1.0000
  Si  Si374     1.0  0.12513  0.64953  0.84937  1.0000
  Si  Si375     1.0  0.02403  0.34533  0.94110  1.0000
  Si  Si376     1.0  0.14263  0.51200  0.77443  1.0000
  Si  Si377     1.0  0.02403  0.48800  0.94110  1.0000
  Si  Si378     1.0  0.14263  0.65467  0.77443  1.0000
  Si  Si379     1.0  0.19070  0.34533  0.89223  1.0000
  Si  Si380     1.0  0.06780  0.35623  0.90657  1.0000
  Si  Si381     1.0  0.09887  0.52290  0.73990  1.0000
  Si  Si382     1.0  0.06780  0.47710  0.90657  1.0000
  Si  Si383     1.0  0.09887  0.64377  0.73990  1.0000
  Si  Si384     1.0  0.13983  0.60913  0.89350  1.0000
  Al  Al10      1.0  0.02683  0.44247  0.72683  1.0000
  Si  Si385     1.0  0.13983  0.55753  0.89350  1.0000
  Si  Si386     1.0  0.02683  0.39087  0.72683  1.0000
  Al  Al11      1.0  0.10507  0.62550  0.94537  1.0000
  Si  Si387     1.0  0.06160  0.45883  0.77870  1.0000
  Si  Si388     1.0  0.10507  0.54117  0.94537  1.0000
  Si  Si389     1.0  0.06160  0.37450  0.77870  1.0000
  Si  Si390     1.0  0.09110  0.60927  0.68007  1.0000
  Si  Si391     1.0  0.07557  0.44260  0.84673  1.0000
  Si  Si392     1.0  0.09110  0.55740  0.68007  1.0000
  Si  Si393     1.0  0.07557  0.39073  0.84673  1.0000
  Si  Si394     1.0  0.03950  0.60930  0.67277  1.0000
  Si  Si395     1.0  0.12717  0.44263  0.83943  1.0000
  Si  Si396     1.0  0.03950  0.55737  0.67277  1.0000
  Si  Si397     1.0  0.12717  0.39070  0.83943  1.0000
  Si  Si398     1.0  0.02190  0.62647  0.93623  1.0000
  Si  Si399     1.0  0.14477  0.45980  0.76957  1.0000
  Si  Si400     1.0  0.02190  0.54020  0.93623  1.0000
  Si  Si401     1.0  0.14477  0.37353  0.76957  1.0000
  Si  Si402     1.0  0.18857  0.62647  0.89710  1.0000
  Si  Si403     1.0  0.06490  0.60960  0.90307  1.0000
  Si  Si404     1.0  0.10177  0.44293  0.73640  1.0000
  Si  Si405     1.0  0.06490  0.55707  0.90307  1.0000
  Si  Si406     1.0  0.10177  0.39040  0.73640  1.0000
  O   O862      1.0  0.16707  0.68997  0.23393  1.0000
  O   O863      1.0  0.33293  0.85663  0.06727  1.0000
  O   O864      1.0  0.16707  0.81003  0.23393  1.0000
  O   O865      1.0  0.33293  0.97670  0.06727  1.0000
  O   O866      1.0  0.16627  0.97670  0.09940  1.0000
  O   O867      1.0  0.00040  0.81003  0.26607  1.0000
  O   O868      1.0  0.16627  0.85663  0.09940  1.0000
  O   O869      1.0  0.00040  0.68997  0.26607  1.0000
  O   O870      1.0  0.12917  0.69143  0.26693  1.0000
  O   O871      1.0  0.03750  0.85810  0.10027  1.0000
  O   O872      1.0  0.12917  0.80857  0.26693  1.0000
  O   O873      1.0  0.03750  0.97523  0.10027  1.0000
  O   O874      1.0  0.20417  0.97523  0.06640  1.0000
  O   O875      1.0  0.29583  0.80857  0.23307  1.0000
  O   O876      1.0  0.20417  0.85810  0.06640  1.0000
  O   O877      1.0  0.13317  0.71220  0.20837  1.0000
  O   O878      1.0  0.03350  0.87887  0.04170  1.0000
  O   O879      1.0  0.13317  0.78780  0.20837  1.0000
  O   O880      1.0  0.03350  0.95447  0.04170  1.0000
  O   O881      1.0  0.20017  0.95447  0.12497  1.0000
  O   O882      1.0  0.29983  0.78780  0.29163  1.0000
  O   O883      1.0  0.20017  0.87887  0.12497  1.0000
  O   O884      1.0  0.13240  0.66780  0.21087  1.0000
  O   O885      1.0  0.03427  0.83447  0.04420  1.0000
  O   O886      1.0  0.13240  0.83220  0.21087  1.0000
  O   O887      1.0  0.03427  0.99887  0.04420  1.0000
  O   O888      1.0  0.20093  0.99887  0.12247  1.0000
  O   O889      1.0  0.29907  0.83220  0.28913  1.0000
  O   O890      1.0  0.20093  0.83447  0.12247  1.0000
  O   O891      1.0  0.10967  0.67950  0.32407  1.0000
  O   O892      1.0  0.05700  0.84617  0.15740  1.0000
  O   O893      1.0  0.10967  0.82050  0.32407  1.0000
  O   O894      1.0  0.05700  0.98717  0.15740  1.0000
  O   O895      1.0  0.22367  0.98717  0.00927  1.0000
  O   O896      1.0  0.27633  0.82050  0.17593  1.0000
  O   O897      1.0  0.22367  0.84617  0.00927  1.0000
  O   O898      1.0  0.10990  0.98517  0.27183  1.0000
  O   O899      1.0  0.05677  0.81850  0.10517  1.0000
  O   O900      1.0  0.10990  0.84817  0.27183  1.0000
  O   O901      1.0  0.05677  0.68150  0.10517  1.0000
  O   O902      1.0  0.22343  0.68150  0.06150  1.0000
  O   O903      1.0  0.27657  0.84817  0.22817  1.0000
  O   O904      1.0  0.22343  0.81850  0.06150  1.0000
  O   O905      1.0  0.27657  0.98517  0.22817  1.0000
  O   O906      1.0  0.08570  0.68877  0.27020  1.0000
  O   O907      1.0  0.08097  0.85543  0.10353  1.0000
  O   O908      1.0  0.08570  0.81123  0.27020  1.0000
  O   O909      1.0  0.08097  0.97790  0.10353  1.0000
  O   O910      1.0  0.24763  0.97790  0.06313  1.0000
  O   O911      1.0  0.25237  0.81123  0.22980  1.0000
  O   O912      1.0  0.24763  0.85543  0.06313  1.0000
  O   O913      1.0  0.09700  0.70987  0.03533  1.0000
  O   O914      1.0  0.06967  0.87653  0.20200  1.0000
  O   O915      1.0  0.09700  0.79013  0.03533  1.0000
  O   O916      1.0  0.06967  0.95680  0.20200  1.0000
  O   O917      1.0  0.23633  0.95680  0.29800  1.0000
  O   O918      1.0  0.26367  0.79013  0.13133  1.0000
  O   O919      1.0  0.23633  0.87653  0.29800  1.0000
  O   O920      1.0  0.06780  0.68183  0.00917  1.0000
  O   O921      1.0  0.09887  0.84850  0.17583  1.0000
  O   O922      1.0  0.06780  0.81817  0.00917  1.0000
  O   O923      1.0  0.09887  0.98483  0.17583  1.0000
  O   O924      1.0  0.26553  0.98483  0.32417  1.0000
  O   O925      1.0  0.23447  0.81817  0.15750  1.0000
  O   O926      1.0  0.26553  0.84850  0.32417  1.0000
  O   O927      1.0  0.23447  0.68183  0.15750  1.0000
  O   O928      1.0  0.09787  0.66700  0.05213  1.0000
  O   O929      1.0  0.06880  0.83367  0.21880  1.0000
  O   O930      1.0  0.09787  0.83300  0.05213  1.0000
  O   O931      1.0  0.06880  0.99967  0.21880  1.0000
  O   O932      1.0  0.23547  0.99967  0.28120  1.0000
  O   O933      1.0  0.26453  0.83300  0.11453  1.0000
  O   O934      1.0  0.23547  0.83367  0.28120  1.0000
  O   O935      1.0  0.03583  0.70883  0.02943  1.0000
  O   O936      1.0  0.13083  0.87550  0.19610  1.0000
  O   O937      1.0  0.03583  0.79117  0.02943  1.0000
  O   O938      1.0  0.13083  0.95783  0.19610  1.0000
  O   O939      1.0  0.29750  0.95783  0.30390  1.0000
  O   O940      1.0  0.20250  0.79117  0.13723  1.0000
  O   O941      1.0  0.29750  0.87550  0.30390  1.0000
  O   O942      1.0  0.20250  0.70883  0.13723  1.0000
  O   O943      1.0  0.02820  0.67900  0.31477  1.0000
  O   O944      1.0  0.13847  0.84567  0.14810  1.0000
  O   O945      1.0  0.02820  0.82100  0.31477  1.0000
  O   O946      1.0  0.13847  0.98767  0.14810  1.0000
  O   O947      1.0  0.30513  0.98767  0.01857  1.0000
  O   O948      1.0  0.19487  0.82100  0.18523  1.0000
  O   O949      1.0  0.30513  0.84567  0.01857  1.0000
  O   O950      1.0  0.19487  0.67900  0.18523  1.0000
  O   O951      1.0  0.04337  0.69270  0.25567  1.0000
  O   O952      1.0  0.12330  0.85937  0.08900  1.0000
  O   O953      1.0  0.04337  0.80730  0.25567  1.0000
  O   O954      1.0  0.12330  0.97397  0.08900  1.0000
  O   O955      1.0  0.28997  0.97397  0.07767  1.0000
  O   O956      1.0  0.21003  0.80730  0.24433  1.0000
  O   O957      1.0  0.28997  0.85937  0.07767  1.0000
  O   O958      1.0  0.21003  0.69270  0.24433  1.0000
  O   O959      1.0  0.02427  0.98630  0.26107  1.0000
  O   O960      1.0  0.14240  0.81963  0.09440  1.0000
  O   O961      1.0  0.02427  0.84703  0.26107  1.0000
  O   O962      1.0  0.14240  0.68037  0.09440  1.0000
  O   O963      1.0  0.19093  0.84703  0.23893  1.0000
  O   O964      1.0  0.30907  0.81963  0.07227  1.0000
  O   O965      1.0  0.19093  0.98630  0.23893  1.0000
  O   O966      1.0  0.07337  0.71043  0.21520  1.0000
  O   O967      1.0  0.09330  0.87710  0.04853  1.0000
  O   O968      1.0  0.07337  0.78957  0.21520  1.0000
  O   O969      1.0  0.09330  0.95623  0.04853  1.0000
  O   O970      1.0  0.25997  0.95623  0.11813  1.0000
  O   O971      1.0  0.24003  0.78957  0.28480  1.0000
  O   O972      1.0  0.25997  0.87710  0.11813  1.0000
  O   O973      1.0  0.24003  0.71043  0.28480  1.0000
  O   O974      1.0  0.16370  0.95160  0.23897  1.0000
  O   O975      1.0  0.00297  0.78493  0.07230  1.0000
  O   O976      1.0  0.16370  0.88173  0.23897  1.0000
  O   O977      1.0  0.00297  0.71507  0.07230  1.0000
  O   O978      1.0  0.16963  0.71507  0.09437  1.0000
  O   O979      1.0  0.33037  0.88173  0.26103  1.0000
  O   O980      1.0  0.16963  0.78493  0.09437  1.0000
  O   O981      1.0  0.33037  0.95160  0.26103  1.0000
  O   O982      1.0  0.12270  0.94370  0.25810  1.0000
  O   O983      1.0  0.04397  0.77703  0.09143  1.0000
  O   O984      1.0  0.12270  0.88963  0.25810  1.0000
  O   O985      1.0  0.04397  0.72297  0.09143  1.0000
  O   O986      1.0  0.21063  0.72297  0.07523  1.0000
  O   O987      1.0  0.28937  0.88963  0.24190  1.0000
  O   O988      1.0  0.21063  0.77703  0.07523  1.0000
  O   O989      1.0  0.28937  0.94370  0.24190  1.0000
  O   O990      1.0  0.14210  0.91667  0.21437  1.0000
  O   O991      1.0  0.02457  0.75000  0.04770  1.0000
  O   O992      1.0  0.19123  0.75000  0.11897  1.0000
  O   O993      1.0  0.30877  0.91667  0.28563  1.0000
  O   O994      1.0  0.10723  0.95370  0.31870  1.0000
  O   O995      1.0  0.05943  0.78703  0.15203  1.0000
  O   O996      1.0  0.10723  0.87963  0.31870  1.0000
  O   O997      1.0  0.05943  0.71297  0.15203  1.0000
  O   O998      1.0  0.22610  0.71297  0.01463  1.0000
  O   O999      1.0  0.27390  0.87963  0.18130  1.0000
  O   O1000     1.0  0.22610  0.78703  0.01463  1.0000
  O   O1001     1.0  0.27390  0.95370  0.18130  1.0000
  O   O1002     1.0  0.08033  0.95273  0.26633  1.0000
  O   O1003     1.0  0.08633  0.78607  0.09967  1.0000
  O   O1004     1.0  0.08033  0.88060  0.26633  1.0000
  O   O1005     1.0  0.08633  0.71393  0.09967  1.0000
  O   O1006     1.0  0.25300  0.71393  0.06700  1.0000
  O   O1007     1.0  0.24700  0.88060  0.23367  1.0000
  O   O1008     1.0  0.25300  0.78607  0.06700  1.0000
  O   O1009     1.0  0.24700  0.95273  0.23367  1.0000
  O   O1010     1.0  0.09810  0.91667  0.01930  1.0000
  O   O1011     1.0  0.06857  0.75000  0.18597  1.0000
  O   O1012     1.0  0.23523  0.75000  0.31403  1.0000
  O   O1013     1.0  0.26477  0.91667  0.14737  1.0000
  O   O1014     1.0  0.06587  0.94377  0.00010  1.0000
  O   O1015     1.0  0.10080  0.77710  0.16677  1.0000
  O   O1016     1.0  0.06587  0.88957  0.00010  1.0000
  O   O1017     1.0  0.10080  0.72290  0.16677  1.0000
  O   O1018     1.0  0.26747  0.72290  0.33323  1.0000
  O   O1019     1.0  0.23253  0.88957  0.16657  1.0000
  O   O1020     1.0  0.26747  0.77710  0.33323  1.0000
  O   O1021     1.0  0.23253  0.94377  0.16657  1.0000
  O   O1022     1.0  0.03160  0.91667  0.00683  1.0000
  O   O1023     1.0  0.13507  0.75000  0.17350  1.0000
  O   O1024     1.0  0.30173  0.75000  0.32650  1.0000
  O   O1025     1.0  0.19827  0.91667  0.15983  1.0000
  O   O1026     1.0  0.02697  0.95567  0.30917  1.0000
  O   O1027     1.0  0.13970  0.78900  0.14250  1.0000
  O   O1028     1.0  0.02697  0.87767  0.30917  1.0000
  O   O1029     1.0  0.13970  0.71100  0.14250  1.0000
  O   O1030     1.0  0.19363  0.87767  0.19083  1.0000
  O   O1031     1.0  0.30637  0.78900  0.02417  1.0000
  O   O1032     1.0  0.19363  0.95567  0.19083  1.0000
  O   O1033     1.0  0.03923  0.94567  0.24687  1.0000
  O   O1034     1.0  0.12743  0.77900  0.08020  1.0000
  O   O1035     1.0  0.03923  0.88767  0.24687  1.0000
  O   O1036     1.0  0.12743  0.72100  0.08020  1.0000
  O   O1037     1.0  0.20590  0.88767  0.25313  1.0000
  O   O1038     1.0  0.29410  0.77900  0.08647  1.0000
  O   O1039     1.0  0.20590  0.94567  0.25313  1.0000
  O   O1040     1.0  0.07053  0.91667  0.23043  1.0000
  O   O1041     1.0  0.09613  0.75000  0.06377  1.0000
  O   O1042     1.0  0.26280  0.75000  0.10290  1.0000
  O   O1043     1.0  0.23720  0.91667  0.26957  1.0000
  Si  Si407     1.0  0.14047  0.69037  0.22993  1.0000
  Si  Si408     1.0  0.02620  0.85703  0.06327  1.0000
  Si  Si409     1.0  0.14047  0.80963  0.22993  1.0000
  Si  Si410     1.0  0.02620  0.97630  0.06327  1.0000
  Si  Si411     1.0  0.19287  0.97630  0.10340  1.0000
  Si  Si412     1.0  0.30713  0.80963  0.27007  1.0000
  Si  Si413     1.0  0.19287  0.85703  0.10340  1.0000
  Si  Si414     1.0  0.10863  0.67787  0.28333  1.0000
  Si  Si415     1.0  0.05803  0.84453  0.11667  1.0000
  Si  Si416     1.0  0.10863  0.82213  0.28333  1.0000
  Si  Si417     1.0  0.05803  0.98880  0.11667  1.0000
  Si  Si418     1.0  0.22470  0.98880  0.05000  1.0000
  Si  Si419     1.0  0.27530  0.82213  0.21667  1.0000
  Si  Si420     1.0  0.22470  0.84453  0.05000  1.0000
  Si  Si421     1.0  0.09307  0.68453  0.02183  1.0000
  Si  Si422     1.0  0.07360  0.85120  0.18850  1.0000
  Si  Si423     1.0  0.09307  0.81547  0.02183  1.0000
  Si  Si424     1.0  0.07360  0.98213  0.18850  1.0000
  Si  Si425     1.0  0.24027  0.98213  0.31150  1.0000
  Si  Si426     1.0  0.25973  0.81547  0.14483  1.0000
  Si  Si427     1.0  0.24027  0.85120  0.31150  1.0000
  Si  Si428     1.0  0.04153  0.68380  0.01603  1.0000
  Si  Si429     1.0  0.12513  0.85047  0.18270  1.0000
  Si  Si430     1.0  0.04153  0.81620  0.01603  1.0000
  Si  Si431     1.0  0.12513  0.98287  0.18270  1.0000
  Si  Si432     1.0  0.29180  0.98287  0.31730  1.0000
  Si  Si433     1.0  0.20820  0.81620  0.15063  1.0000
  Si  Si434     1.0  0.29180  0.85047  0.31730  1.0000
  Si  Si435     1.0  0.20820  0.68380  0.15063  1.0000
  Si  Si436     1.0  0.02403  0.67867  0.27443  1.0000
  Si  Si437     1.0  0.14263  0.84533  0.10777  1.0000
  Si  Si438     1.0  0.02403  0.82133  0.27443  1.0000
  Si  Si439     1.0  0.14263  0.98800  0.10777  1.0000
  Si  Si440     1.0  0.30930  0.98800  0.05890  1.0000
  Si  Si441     1.0  0.19070  0.82133  0.22557  1.0000
  Si  Si442     1.0  0.30930  0.84533  0.05890  1.0000
  Si  Si443     1.0  0.19070  0.67867  0.22557  1.0000
  Si  Si444     1.0  0.06780  0.68957  0.23990  1.0000
  Si  Si445     1.0  0.09887  0.85623  0.07323  1.0000
  Si  Si446     1.0  0.06780  0.81043  0.23990  1.0000
  Si  Si447     1.0  0.09887  0.97710  0.07323  1.0000
  Si  Si448     1.0  0.26553  0.97710  0.09343  1.0000
  Si  Si449     1.0  0.23447  0.81043  0.26010  1.0000
  Si  Si450     1.0  0.26553  0.85623  0.09343  1.0000
  Si  Si451     1.0  0.13983  0.94247  0.22683  1.0000
  Si  Si452     1.0  0.02683  0.77580  0.06017  1.0000
  Si  Si453     1.0  0.13983  0.89087  0.22683  1.0000
  Si  Si454     1.0  0.02683  0.72420  0.06017  1.0000
  Si  Si455     1.0  0.19350  0.72420  0.10650  1.0000
  Si  Si456     1.0  0.30650  0.89087  0.27317  1.0000
  Si  Si457     1.0  0.19350  0.77580  0.10650  1.0000
  Si  Si458     1.0  0.30650  0.94247  0.27317  1.0000
  Si  Si459     1.0  0.10507  0.95883  0.27870  1.0000
  Si  Si460     1.0  0.06160  0.79217  0.11203  1.0000
  Si  Si461     1.0  0.10507  0.87450  0.27870  1.0000
  Si  Si462     1.0  0.06160  0.70783  0.11203  1.0000
  Si  Si463     1.0  0.22827  0.70783  0.05463  1.0000
  Si  Si464     1.0  0.27173  0.87450  0.22130  1.0000
  Si  Si465     1.0  0.22827  0.79217  0.05463  1.0000
  Si  Si466     1.0  0.27173  0.95883  0.22130  1.0000
  Si  Si467     1.0  0.09110  0.94260  0.01340  1.0000
  Si  Si468     1.0  0.07557  0.77593  0.18007  1.0000
  Si  Si469     1.0  0.09110  0.89073  0.01340  1.0000
  Si  Si470     1.0  0.07557  0.72407  0.18007  1.0000
  Si  Si471     1.0  0.24223  0.72407  0.31993  1.0000
  Si  Si472     1.0  0.25777  0.89073  0.15327  1.0000
  Si  Si473     1.0  0.24223  0.77593  0.31993  1.0000
  Si  Si474     1.0  0.25777  0.94260  0.15327  1.0000
  Si  Si475     1.0  0.03950  0.94263  0.00610  1.0000
  Si  Si476     1.0  0.12717  0.77597  0.17277  1.0000
  Si  Si477     1.0  0.03950  0.89070  0.00610  1.0000
  Si  Si478     1.0  0.12717  0.72403  0.17277  1.0000
  Si  Si479     1.0  0.20617  0.89070  0.16057  1.0000
  Si  Si480     1.0  0.29383  0.77597  0.32723  1.0000
  Si  Si481     1.0  0.20617  0.94263  0.16057  1.0000
  Si  Si482     1.0  0.02190  0.95980  0.26957  1.0000
  Si  Si483     1.0  0.14477  0.79313  0.10290  1.0000
  Si  Si484     1.0  0.02190  0.87353  0.26957  1.0000
  Si  Si485     1.0  0.14477  0.70687  0.10290  1.0000
  Si  Si486     1.0  0.18857  0.87353  0.23043  1.0000
  Si  Si487     1.0  0.31143  0.79313  0.06377  1.0000
  Si  Si488     1.0  0.18857  0.95980  0.23043  1.0000
  Si  Si489     1.0  0.06490  0.94293  0.23640  1.0000
  Si  Si490     1.0  0.10177  0.77627  0.06973  1.0000
  Si  Si491     1.0  0.06490  0.89040  0.23640  1.0000
  Si  Si492     1.0  0.10177  0.72373  0.06973  1.0000
  Si  Si493     1.0  0.23157  0.89040  0.26360  1.0000
  Si  Si494     1.0  0.26843  0.77627  0.09693  1.0000
  Si  Si495     1.0  0.23157  0.94293  0.26360  1.0000
  O   O1044     1.0  0.16707  0.68997  0.56727  1.0000
  O   O1045     1.0  0.33293  0.85663  0.40060  1.0000
  O   O1046     1.0  0.16707  0.81003  0.56727  1.0000
  O   O1047     1.0  0.33293  0.97670  0.40060  1.0000
  O   O1048     1.0  0.16627  0.97670  0.43273  1.0000
  O   O1049     1.0  0.00040  0.81003  0.59940  1.0000
  O   O1050     1.0  0.16627  0.85663  0.43273  1.0000
  O   O1051     1.0  0.00040  0.68997  0.59940  1.0000
  O   O1052     1.0  0.12917  0.69143  0.60027  1.0000
  O   O1053     1.0  0.03750  0.85810  0.43360  1.0000
  O   O1054     1.0  0.12917  0.80857  0.60027  1.0000
  O   O1055     1.0  0.03750  0.97523  0.43360  1.0000
  O   O1056     1.0  0.20417  0.97523  0.39973  1.0000
  O   O1057     1.0  0.29583  0.80857  0.56640  1.0000
  O   O1058     1.0  0.20417  0.85810  0.39973  1.0000
  O   O1059     1.0  0.13317  0.71220  0.54170  1.0000
  O   O1060     1.0  0.03350  0.87887  0.37503  1.0000
  O   O1061     1.0  0.13317  0.78780  0.54170  1.0000
  O   O1062     1.0  0.03350  0.95447  0.37503  1.0000
  O   O1063     1.0  0.20017  0.95447  0.45830  1.0000
  O   O1064     1.0  0.29983  0.78780  0.62497  1.0000
  O   O1065     1.0  0.20017  0.87887  0.45830  1.0000
  O   O1066     1.0  0.13240  0.66780  0.54420  1.0000
  O   O1067     1.0  0.03427  0.83447  0.37753  1.0000
  O   O1068     1.0  0.13240  0.83220  0.54420  1.0000
  O   O1069     1.0  0.03427  0.99887  0.37753  1.0000
  O   O1070     1.0  0.20093  0.99887  0.45580  1.0000
  O   O1071     1.0  0.29907  0.83220  0.62247  1.0000
  O   O1072     1.0  0.20093  0.83447  0.45580  1.0000
  O   O1073     1.0  0.10967  0.67950  0.65740  1.0000
  O   O1074     1.0  0.05700  0.84617  0.49073  1.0000
  O   O1075     1.0  0.10967  0.82050  0.65740  1.0000
  O   O1076     1.0  0.05700  0.98717  0.49073  1.0000
  O   O1077     1.0  0.22367  0.98717  0.34260  1.0000
  O   O1078     1.0  0.27633  0.82050  0.50927  1.0000
  O   O1079     1.0  0.22367  0.84617  0.34260  1.0000
  O   O1080     1.0  0.10990  0.98517  0.60517  1.0000
  O   O1081     1.0  0.05677  0.81850  0.43850  1.0000
  O   O1082     1.0  0.10990  0.84817  0.60517  1.0000
  O   O1083     1.0  0.05677  0.68150  0.43850  1.0000
  O   O1084     1.0  0.22343  0.68150  0.39483  1.0000
  O   O1085     1.0  0.27657  0.84817  0.56150  1.0000
  O   O1086     1.0  0.22343  0.81850  0.39483  1.0000
  O   O1087     1.0  0.27657  0.98517  0.56150  1.0000
  O   O1088     1.0  0.08570  0.68877  0.60353  1.0000
  O   O1089     1.0  0.08097  0.85543  0.43687  1.0000
  O   O1090     1.0  0.08570  0.81123  0.60353  1.0000
  O   O1091     1.0  0.08097  0.97790  0.43687  1.0000
  O   O1092     1.0  0.24763  0.97790  0.39647  1.0000
  O   O1093     1.0  0.25237  0.81123  0.56313  1.0000
  O   O1094     1.0  0.24763  0.85543  0.39647  1.0000
  O   O1095     1.0  0.09700  0.70987  0.36867  1.0000
  O   O1096     1.0  0.06967  0.87653  0.53533  1.0000
  O   O1097     1.0  0.09700  0.79013  0.36867  1.0000
  O   O1098     1.0  0.06967  0.95680  0.53533  1.0000
  O   O1099     1.0  0.23633  0.95680  0.63133  1.0000
  O   O1100     1.0  0.26367  0.79013  0.46467  1.0000
  O   O1101     1.0  0.23633  0.87653  0.63133  1.0000
  O   O1102     1.0  0.06780  0.68183  0.34250  1.0000
  O   O1103     1.0  0.09887  0.84850  0.50917  1.0000
  O   O1104     1.0  0.06780  0.81817  0.34250  1.0000
  O   O1105     1.0  0.09887  0.98483  0.50917  1.0000
  O   O1106     1.0  0.26553  0.98483  0.65750  1.0000
  O   O1107     1.0  0.23447  0.81817  0.49083  1.0000
  O   O1108     1.0  0.26553  0.84850  0.65750  1.0000
  O   O1109     1.0  0.23447  0.68183  0.49083  1.0000
  O   O1110     1.0  0.09787  0.66700  0.38547  1.0000
  O   O1111     1.0  0.06880  0.83367  0.55213  1.0000
  O   O1112     1.0  0.09787  0.83300  0.38547  1.0000
  O   O1113     1.0  0.06880  0.99967  0.55213  1.0000
  O   O1114     1.0  0.23547  0.99967  0.61453  1.0000
  O   O1115     1.0  0.26453  0.83300  0.44787  1.0000
  O   O1116     1.0  0.23547  0.83367  0.61453  1.0000
  O   O1117     1.0  0.03583  0.70883  0.36277  1.0000
  O   O1118     1.0  0.13083  0.87550  0.52943  1.0000
  O   O1119     1.0  0.03583  0.79117  0.36277  1.0000
  O   O1120     1.0  0.13083  0.95783  0.52943  1.0000
  O   O1121     1.0  0.29750  0.95783  0.63723  1.0000
  O   O1122     1.0  0.20250  0.79117  0.47057  1.0000
  O   O1123     1.0  0.29750  0.87550  0.63723  1.0000
  O   O1124     1.0  0.20250  0.70883  0.47057  1.0000
  O   O1125     1.0  0.02820  0.67900  0.64810  1.0000
  O   O1126     1.0  0.13847  0.84567  0.48143  1.0000
  O   O1127     1.0  0.02820  0.82100  0.64810  1.0000
  O   O1128     1.0  0.13847  0.98767  0.48143  1.0000
  O   O1129     1.0  0.30513  0.98767  0.35190  1.0000
  O   O1130     1.0  0.19487  0.82100  0.51857  1.0000
  O   O1131     1.0  0.30513  0.84567  0.35190  1.0000
  O   O1132     1.0  0.19487  0.67900  0.51857  1.0000
  O   O1133     1.0  0.04337  0.69270  0.58900  1.0000
  O   O1134     1.0  0.12330  0.85937  0.42233  1.0000
  O   O1135     1.0  0.04337  0.80730  0.58900  1.0000
  O   O1136     1.0  0.12330  0.97397  0.42233  1.0000
  O   O1137     1.0  0.28997  0.97397  0.41100  1.0000
  O   O1138     1.0  0.21003  0.80730  0.57767  1.0000
  O   O1139     1.0  0.28997  0.85937  0.41100  1.0000
  O   O1140     1.0  0.21003  0.69270  0.57767  1.0000
  O   O1141     1.0  0.02427  0.98630  0.59440  1.0000
  O   O1142     1.0  0.14240  0.81963  0.42773  1.0000
  O   O1143     1.0  0.02427  0.84703  0.59440  1.0000
  O   O1144     1.0  0.14240  0.68037  0.42773  1.0000
  O   O1145     1.0  0.19093  0.84703  0.57227  1.0000
  O   O1146     1.0  0.30907  0.81963  0.40560  1.0000
  O   O1147     1.0  0.19093  0.98630  0.57227  1.0000
  O   O1148     1.0  0.07337  0.71043  0.54853  1.0000
  O   O1149     1.0  0.09330  0.87710  0.38187  1.0000
  O   O1150     1.0  0.07337  0.78957  0.54853  1.0000
  O   O1151     1.0  0.09330  0.95623  0.38187  1.0000
  O   O1152     1.0  0.25997  0.95623  0.45147  1.0000
  O   O1153     1.0  0.24003  0.78957  0.61813  1.0000
  O   O1154     1.0  0.25997  0.87710  0.45147  1.0000
  O   O1155     1.0  0.24003  0.71043  0.61813  1.0000
  O   O1156     1.0  0.16370  0.95160  0.57230  1.0000
  O   O1157     1.0  0.00297  0.78493  0.40563  1.0000
  O   O1158     1.0  0.16370  0.88173  0.57230  1.0000
  O   O1159     1.0  0.00297  0.71507  0.40563  1.0000
  O   O1160     1.0  0.16963  0.71507  0.42770  1.0000
  O   O1161     1.0  0.33037  0.88173  0.59437  1.0000
  O   O1162     1.0  0.16963  0.78493  0.42770  1.0000
  O   O1163     1.0  0.33037  0.95160  0.59437  1.0000
  O   O1164     1.0  0.12270  0.94370  0.59143  1.0000
  O   O1165     1.0  0.04397  0.77703  0.42477  1.0000
  O   O1166     1.0  0.12270  0.88963  0.59143  1.0000
  O   O1167     1.0  0.04397  0.72297  0.42477  1.0000
  O   O1168     1.0  0.21063  0.72297  0.40857  1.0000
  O   O1169     1.0  0.28937  0.88963  0.57523  1.0000
  O   O1170     1.0  0.21063  0.77703  0.40857  1.0000
  O   O1171     1.0  0.28937  0.94370  0.57523  1.0000
  O   O1172     1.0  0.14210  0.91667  0.54770  1.0000
  O   O1173     1.0  0.02457  0.75000  0.38103  1.0000
  O   O1174     1.0  0.19123  0.75000  0.45230  1.0000
  O   O1175     1.0  0.30877  0.91667  0.61897  1.0000
  O   O1176     1.0  0.10723  0.95370  0.65203  1.0000
  O   O1177     1.0  0.05943  0.78703  0.48537  1.0000
  O   O1178     1.0  0.10723  0.87963  0.65203  1.0000
  O   O1179     1.0  0.05943  0.71297  0.48537  1.0000
  O   O1180     1.0  0.22610  0.71297  0.34797  1.0000
  O   O1181     1.0  0.27390  0.87963  0.51463  1.0000
  O   O1182     1.0  0.22610  0.78703  0.34797  1.0000
  O   O1183     1.0  0.27390  0.95370  0.51463  1.0000
  O   O1184     1.0  0.08033  0.95273  0.59967  1.0000
  O   O1185     1.0  0.08633  0.78607  0.43300  1.0000
  O   O1186     1.0  0.08033  0.88060  0.59967  1.0000
  O   O1187     1.0  0.08633  0.71393  0.43300  1.0000
  O   O1188     1.0  0.25300  0.71393  0.40033  1.0000
  O   O1189     1.0  0.24700  0.88060  0.56700  1.0000
  O   O1190     1.0  0.25300  0.78607  0.40033  1.0000
  O   O1191     1.0  0.24700  0.95273  0.56700  1.0000
  O   O1192     1.0  0.09810  0.91667  0.35263  1.0000
  O   O1193     1.0  0.06857  0.75000  0.51930  1.0000
  O   O1194     1.0  0.23523  0.75000  0.64737  1.0000
  O   O1195     1.0  0.26477  0.91667  0.48070  1.0000
  O   O1196     1.0  0.06587  0.94377  0.33343  1.0000
  O   O1197     1.0  0.10080  0.77710  0.50010  1.0000
  O   O1198     1.0  0.06587  0.88957  0.33343  1.0000
  O   O1199     1.0  0.10080  0.72290  0.50010  1.0000
  O   O1200     1.0  0.26747  0.72290  0.66657  1.0000
  O   O1201     1.0  0.23253  0.88957  0.49990  1.0000
  O   O1202     1.0  0.26747  0.77710  0.66657  1.0000
  O   O1203     1.0  0.23253  0.94377  0.49990  1.0000
  O   O1204     1.0  0.03160  0.91667  0.34017  1.0000
  O   O1205     1.0  0.13507  0.75000  0.50683  1.0000
  O   O1206     1.0  0.30173  0.75000  0.65983  1.0000
  O   O1207     1.0  0.19827  0.91667  0.49317  1.0000
  O   O1208     1.0  0.02697  0.95567  0.64250  1.0000
  O   O1209     1.0  0.13970  0.78900  0.47583  1.0000
  O   O1210     1.0  0.02697  0.87767  0.64250  1.0000
  O   O1211     1.0  0.13970  0.71100  0.47583  1.0000
  O   O1212     1.0  0.19363  0.87767  0.52417  1.0000
  O   O1213     1.0  0.30637  0.78900  0.35750  1.0000
  O   O1214     1.0  0.19363  0.95567  0.52417  1.0000
  O   O1215     1.0  0.03923  0.94567  0.58020  1.0000
  O   O1216     1.0  0.12743  0.77900  0.41353  1.0000
  O   O1217     1.0  0.03923  0.88767  0.58020  1.0000
  O   O1218     1.0  0.12743  0.72100  0.41353  1.0000
  O   O1219     1.0  0.20590  0.88767  0.58647  1.0000
  O   O1220     1.0  0.29410  0.77900  0.41980  1.0000
  O   O1221     1.0  0.20590  0.94567  0.58647  1.0000
  O   O1222     1.0  0.07053  0.91667  0.56377  1.0000
  O   O1223     1.0  0.09613  0.75000  0.39710  1.0000
  O   O1224     1.0  0.26280  0.75000  0.43623  1.0000
  O   O1225     1.0  0.23720  0.91667  0.60290  1.0000
  Si  Si496     1.0  0.14047  0.69037  0.56327  1.0000
  Si  Si497     1.0  0.02620  0.85703  0.39660  1.0000
  Si  Si498     1.0  0.14047  0.80963  0.56327  1.0000
  Si  Si499     1.0  0.02620  0.97630  0.39660  1.0000
  Si  Si500     1.0  0.19287  0.97630  0.43673  1.0000
  Si  Si501     1.0  0.30713  0.80963  0.60340  1.0000
  Si  Si502     1.0  0.19287  0.85703  0.43673  1.0000
  Si  Si503     1.0  0.10863  0.67787  0.61667  1.0000
  Si  Si504     1.0  0.05803  0.84453  0.45000  1.0000
  Si  Si505     1.0  0.10863  0.82213  0.61667  1.0000
  Si  Si506     1.0  0.05803  0.98880  0.45000  1.0000
  Si  Si507     1.0  0.22470  0.98880  0.38333  1.0000
  Si  Si508     1.0  0.27530  0.82213  0.55000  1.0000
  Si  Si509     1.0  0.22470  0.84453  0.38333  1.0000
  Si  Si510     1.0  0.09307  0.68453  0.35517  1.0000
  Si  Si511     1.0  0.07360  0.85120  0.52183  1.0000
  Si  Si512     1.0  0.09307  0.81547  0.35517  1.0000
  Si  Si513     1.0  0.07360  0.98213  0.52183  1.0000
  Si  Si514     1.0  0.24027  0.98213  0.64483  1.0000
  Si  Si515     1.0  0.25973  0.81547  0.47817  1.0000
  Si  Si516     1.0  0.24027  0.85120  0.64483  1.0000
  Si  Si517     1.0  0.04153  0.68380  0.34937  1.0000
  Al  Al12      1.0  0.12513  0.85047  0.51603  1.0000
  Al  Al13      1.0  0.04153  0.81620  0.34937  1.0000
  Si  Si518     1.0  0.12513  0.98287  0.51603  1.0000
  Si  Si519     1.0  0.29180  0.98287  0.65063  1.0000
  Si  Si520     1.0  0.20820  0.81620  0.48397  1.0000
  Si  Si521     1.0  0.29180  0.85047  0.65063  1.0000
  Si  Si522     1.0  0.20820  0.68380  0.48397  1.0000
  Si  Si523     1.0  0.02403  0.67867  0.60777  1.0000
  Si  Si524     1.0  0.14263  0.84533  0.44110  1.0000
  Si  Si525     1.0  0.02403  0.82133  0.60777  1.0000
  Si  Si526     1.0  0.14263  0.98800  0.44110  1.0000
  Si  Si527     1.0  0.30930  0.98800  0.39223  1.0000
  Si  Si528     1.0  0.19070  0.82133  0.55890  1.0000
  Si  Si529     1.0  0.30930  0.84533  0.39223  1.0000
  Si  Si530     1.0  0.19070  0.67867  0.55890  1.0000
  Si  Si531     1.0  0.06780  0.68957  0.57323  1.0000
  Si  Si532     1.0  0.09887  0.85623  0.40657  1.0000
  Si  Si533     1.0  0.06780  0.81043  0.57323  1.0000
  Si  Si534     1.0  0.09887  0.97710  0.40657  1.0000
  Si  Si535     1.0  0.26553  0.97710  0.42677  1.0000
  Si  Si536     1.0  0.23447  0.81043  0.59343  1.0000
  Si  Si537     1.0  0.26553  0.85623  0.42677  1.0000
  Si  Si538     1.0  0.13983  0.94247  0.56017  1.0000
  Si  Si539     1.0  0.02683  0.77580  0.39350  1.0000
  Si  Si540     1.0  0.13983  0.89087  0.56017  1.0000
  Si  Si541     1.0  0.02683  0.72420  0.39350  1.0000
  Si  Si542     1.0  0.19350  0.72420  0.43983  1.0000
  Si  Si543     1.0  0.30650  0.89087  0.60650  1.0000
  Si  Si544     1.0  0.19350  0.77580  0.43983  1.0000
  Si  Si545     1.0  0.30650  0.94247  0.60650  1.0000
  Si  Si546     1.0  0.10507  0.95883  0.61203  1.0000
  Si  Si547     1.0  0.06160  0.79217  0.44537  1.0000
  Si  Si548     1.0  0.10507  0.87450  0.61203  1.0000
  Si  Si549     1.0  0.06160  0.70783  0.44537  1.0000
  Si  Si550     1.0  0.22827  0.70783  0.38797  1.0000
  Si  Si551     1.0  0.27173  0.87450  0.55463  1.0000
  Si  Si552     1.0  0.22827  0.79217  0.38797  1.0000
  Si  Si553     1.0  0.27173  0.95883  0.55463  1.0000
  Si  Si554     1.0  0.09110  0.94260  0.34673  1.0000
  Si  Si555     1.0  0.07557  0.77593  0.51340  1.0000
  Si  Si556     1.0  0.09110  0.89073  0.34673  1.0000
  Si  Si557     1.0  0.07557  0.72407  0.51340  1.0000
  Si  Si558     1.0  0.24223  0.72407  0.65327  1.0000
  Si  Si559     1.0  0.25777  0.89073  0.48660  1.0000
  Si  Si560     1.0  0.24223  0.77593  0.65327  1.0000
  Si  Si561     1.0  0.25777  0.94260  0.48660  1.0000
  Si  Si562     1.0  0.03950  0.94263  0.33943  1.0000
  Si  Si563     1.0  0.12717  0.77597  0.50610  1.0000
  Si  Si564     1.0  0.03950  0.89070  0.33943  1.0000
  Si  Si565     1.0  0.12717  0.72403  0.50610  1.0000
  Si  Si566     1.0  0.20617  0.89070  0.49390  1.0000
  Si  Si567     1.0  0.29383  0.77597  0.66057  1.0000
  Si  Si568     1.0  0.20617  0.94263  0.49390  1.0000
  Si  Si569     1.0  0.02190  0.95980  0.60290  1.0000
  Si  Si570     1.0  0.14477  0.79313  0.43623  1.0000
  Si  Si571     1.0  0.02190  0.87353  0.60290  1.0000
  Si  Si572     1.0  0.14477  0.70687  0.43623  1.0000
  Si  Si573     1.0  0.18857  0.87353  0.56377  1.0000
  Si  Si574     1.0  0.31143  0.79313  0.39710  1.0000
  Si  Si575     1.0  0.18857  0.95980  0.56377  1.0000
  Si  Si576     1.0  0.06490  0.94293  0.56973  1.0000
  Si  Si577     1.0  0.10177  0.77627  0.40307  1.0000
  Si  Si578     1.0  0.06490  0.89040  0.56973  1.0000
  Si  Si579     1.0  0.10177  0.72373  0.40307  1.0000
  Si  Si580     1.0  0.23157  0.89040  0.59693  1.0000
  Si  Si581     1.0  0.26843  0.77627  0.43027  1.0000
  Si  Si582     1.0  0.23157  0.94293  0.59693  1.0000
  O   O1226     1.0  0.16707  0.68997  0.90060  1.0000
  O   O1227     1.0  0.33293  0.85663  0.73393  1.0000
  O   O1228     1.0  0.16707  0.81003  0.90060  1.0000
  O   O1229     1.0  0.33293  0.97670  0.73393  1.0000
  O   O1230     1.0  0.16627  0.97670  0.76607  1.0000
  O   O1231     1.0  0.00040  0.81003  0.93273  1.0000
  O   O1232     1.0  0.16627  0.85663  0.76607  1.0000
  O   O1233     1.0  0.00040  0.68997  0.93273  1.0000
  O   O1234     1.0  0.12917  0.69143  0.93360  1.0000
  O   O1235     1.0  0.03750  0.85810  0.76693  1.0000
  O   O1236     1.0  0.12917  0.80857  0.93360  1.0000
  O   O1237     1.0  0.03750  0.97523  0.76693  1.0000
  O   O1238     1.0  0.20417  0.97523  0.73307  1.0000
  O   O1239     1.0  0.29583  0.80857  0.89973  1.0000
  O   O1240     1.0  0.20417  0.85810  0.73307  1.0000
  O   O1241     1.0  0.13317  0.71220  0.87503  1.0000
  O   O1242     1.0  0.03350  0.87887  0.70837  1.0000
  O   O1243     1.0  0.13317  0.78780  0.87503  1.0000
  O   O1244     1.0  0.03350  0.95447  0.70837  1.0000
  O   O1245     1.0  0.20017  0.95447  0.79163  1.0000
  O   O1246     1.0  0.29983  0.78780  0.95830  1.0000
  O   O1247     1.0  0.20017  0.87887  0.79163  1.0000
  O   O1248     1.0  0.13240  0.66780  0.87753  1.0000
  O   O1249     1.0  0.03427  0.83447  0.71087  1.0000
  O   O1250     1.0  0.13240  0.83220  0.87753  1.0000
  O   O1251     1.0  0.03427  0.99887  0.71087  1.0000
  O   O1252     1.0  0.20093  0.99887  0.78913  1.0000
  O   O1253     1.0  0.29907  0.83220  0.95580  1.0000
  O   O1254     1.0  0.20093  0.83447  0.78913  1.0000
  O   O1255     1.0  0.10967  0.67950  0.99073  1.0000
  O   O1256     1.0  0.05700  0.84617  0.82407  1.0000
  O   O1257     1.0  0.10967  0.82050  0.99073  1.0000
  O   O1258     1.0  0.05700  0.98717  0.82407  1.0000
  O   O1259     1.0  0.22367  0.98717  0.67593  1.0000
  O   O1260     1.0  0.27633  0.82050  0.84260  1.0000
  O   O1261     1.0  0.22367  0.84617  0.67593  1.0000
  O   O1262     1.0  0.10990  0.98517  0.93850  1.0000
  O   O1263     1.0  0.05677  0.81850  0.77183  1.0000
  O   O1264     1.0  0.10990  0.84817  0.93850  1.0000
  O   O1265     1.0  0.05677  0.68150  0.77183  1.0000
  O   O1266     1.0  0.22343  0.68150  0.72817  1.0000
  O   O1267     1.0  0.27657  0.84817  0.89483  1.0000
  O   O1268     1.0  0.22343  0.81850  0.72817  1.0000
  O   O1269     1.0  0.27657  0.98517  0.89483  1.0000
  O   O1270     1.0  0.08570  0.68877  0.93687  1.0000
  O   O1271     1.0  0.08097  0.85543  0.77020  1.0000
  O   O1272     1.0  0.08570  0.81123  0.93687  1.0000
  O   O1273     1.0  0.08097  0.97790  0.77020  1.0000
  O   O1274     1.0  0.24763  0.97790  0.72980  1.0000
  O   O1275     1.0  0.25237  0.81123  0.89647  1.0000
  O   O1276     1.0  0.24763  0.85543  0.72980  1.0000
  O   O1277     1.0  0.09700  0.70987  0.70200  1.0000
  O   O1278     1.0  0.06967  0.87653  0.86867  1.0000
  O   O1279     1.0  0.09700  0.79013  0.70200  1.0000
  O   O1280     1.0  0.06967  0.95680  0.86867  1.0000
  O   O1281     1.0  0.23633  0.95680  0.96467  1.0000
  O   O1282     1.0  0.26367  0.79013  0.79800  1.0000
  O   O1283     1.0  0.23633  0.87653  0.96467  1.0000
  O   O1284     1.0  0.06780  0.68183  0.67583  1.0000
  O   O1285     1.0  0.09887  0.84850  0.84250  1.0000
  O   O1286     1.0  0.06780  0.81817  0.67583  1.0000
  O   O1287     1.0  0.09887  0.98483  0.84250  1.0000
  O   O1288     1.0  0.26553  0.98483  0.99083  1.0000
  O   O1289     1.0  0.23447  0.81817  0.82417  1.0000
  O   O1290     1.0  0.26553  0.84850  0.99083  1.0000
  O   O1291     1.0  0.23447  0.68183  0.82417  1.0000
  O   O1292     1.0  0.09787  0.66700  0.71880  1.0000
  O   O1293     1.0  0.06880  0.83367  0.88547  1.0000
  O   O1294     1.0  0.09787  0.83300  0.71880  1.0000
  O   O1295     1.0  0.06880  0.99967  0.88547  1.0000
  O   O1296     1.0  0.23547  0.99967  0.94787  1.0000
  O   O1297     1.0  0.26453  0.83300  0.78120  1.0000
  O   O1298     1.0  0.23547  0.83367  0.94787  1.0000
  O   O1299     1.0  0.03583  0.70883  0.69610  1.0000
  O   O1300     1.0  0.13083  0.87550  0.86277  1.0000
  O   O1301     1.0  0.03583  0.79117  0.69610  1.0000
  O   O1302     1.0  0.13083  0.95783  0.86277  1.0000
  O   O1303     1.0  0.29750  0.95783  0.97057  1.0000
  O   O1304     1.0  0.20250  0.79117  0.80390  1.0000
  O   O1305     1.0  0.29750  0.87550  0.97057  1.0000
  O   O1306     1.0  0.20250  0.70883  0.80390  1.0000
  O   O1307     1.0  0.02820  0.67900  0.98143  1.0000
  O   O1308     1.0  0.13847  0.84567  0.81477  1.0000
  O   O1309     1.0  0.02820  0.82100  0.98143  1.0000
  O   O1310     1.0  0.13847  0.98767  0.81477  1.0000
  O   O1311     1.0  0.30513  0.98767  0.68523  1.0000
  O   O1312     1.0  0.19487  0.82100  0.85190  1.0000
  O   O1313     1.0  0.30513  0.84567  0.68523  1.0000
  O   O1314     1.0  0.19487  0.67900  0.85190  1.0000
  O   O1315     1.0  0.04337  0.69270  0.92233  1.0000
  O   O1316     1.0  0.12330  0.85937  0.75567  1.0000
  O   O1317     1.0  0.04337  0.80730  0.92233  1.0000
  O   O1318     1.0  0.12330  0.97397  0.75567  1.0000
  O   O1319     1.0  0.28997  0.97397  0.74433  1.0000
  O   O1320     1.0  0.21003  0.80730  0.91100  1.0000
  O   O1321     1.0  0.28997  0.85937  0.74433  1.0000
  O   O1322     1.0  0.21003  0.69270  0.91100  1.0000
  O   O1323     1.0  0.02427  0.98630  0.92773  1.0000
  O   O1324     1.0  0.14240  0.81963  0.76107  1.0000
  O   O1325     1.0  0.02427  0.84703  0.92773  1.0000
  O   O1326     1.0  0.14240  0.68037  0.76107  1.0000
  O   O1327     1.0  0.19093  0.84703  0.90560  1.0000
  O   O1328     1.0  0.30907  0.81963  0.73893  1.0000
  O   O1329     1.0  0.19093  0.98630  0.90560  1.0000
  O   O1330     1.0  0.07337  0.71043  0.88187  1.0000
  O   O1331     1.0  0.09330  0.87710  0.71520  1.0000
  O   O1332     1.0  0.07337  0.78957  0.88187  1.0000
  O   O1333     1.0  0.09330  0.95623  0.71520  1.0000
  O   O1334     1.0  0.25997  0.95623  0.78480  1.0000
  O   O1335     1.0  0.24003  0.78957  0.95147  1.0000
  O   O1336     1.0  0.25997  0.87710  0.78480  1.0000
  O   O1337     1.0  0.24003  0.71043  0.95147  1.0000
  O   O1338     1.0  0.16370  0.95160  0.90563  1.0000
  O   O1339     1.0  0.00297  0.78493  0.73897  1.0000
  O   O1340     1.0  0.16370  0.88173  0.90563  1.0000
  O   O1341     1.0  0.00297  0.71507  0.73897  1.0000
  O   O1342     1.0  0.16963  0.71507  0.76103  1.0000
  O   O1343     1.0  0.33037  0.88173  0.92770  1.0000
  O   O1344     1.0  0.16963  0.78493  0.76103  1.0000
  O   O1345     1.0  0.33037  0.95160  0.92770  1.0000
  O   O1346     1.0  0.12270  0.94370  0.92477  1.0000
  O   O1347     1.0  0.04397  0.77703  0.75810  1.0000
  O   O1348     1.0  0.12270  0.88963  0.92477  1.0000
  O   O1349     1.0  0.04397  0.72297  0.75810  1.0000
  O   O1350     1.0  0.21063  0.72297  0.74190  1.0000
  O   O1351     1.0  0.28937  0.88963  0.90857  1.0000
  O   O1352     1.0  0.21063  0.77703  0.74190  1.0000
  O   O1353     1.0  0.28937  0.94370  0.90857  1.0000
  O   O1354     1.0  0.14210  0.91667  0.88103  1.0000
  O   O1355     1.0  0.02457  0.75000  0.71437  1.0000
  O   O1356     1.0  0.19123  0.75000  0.78563  1.0000
  O   O1357     1.0  0.30877  0.91667  0.95230  1.0000
  O   O1358     1.0  0.10723  0.95370  0.98537  1.0000
  O   O1359     1.0  0.05943  0.78703  0.81870  1.0000
  O   O1360     1.0  0.10723  0.87963  0.98537  1.0000
  O   O1361     1.0  0.05943  0.71297  0.81870  1.0000
  O   O1362     1.0  0.22610  0.71297  0.68130  1.0000
  O   O1363     1.0  0.27390  0.87963  0.84797  1.0000
  O   O1364     1.0  0.22610  0.78703  0.68130  1.0000
  O   O1365     1.0  0.27390  0.95370  0.84797  1.0000
  O   O1366     1.0  0.08033  0.95273  0.93300  1.0000
  O   O1367     1.0  0.08633  0.78607  0.76633  1.0000
  O   O1368     1.0  0.08033  0.88060  0.93300  1.0000
  O   O1369     1.0  0.08633  0.71393  0.76633  1.0000
  O   O1370     1.0  0.25300  0.71393  0.73367  1.0000
  O   O1371     1.0  0.24700  0.88060  0.90033  1.0000
  O   O1372     1.0  0.25300  0.78607  0.73367  1.0000
  O   O1373     1.0  0.24700  0.95273  0.90033  1.0000
  O   O1374     1.0  0.09810  0.91667  0.68597  1.0000
  O   O1375     1.0  0.06857  0.75000  0.85263  1.0000
  O   O1376     1.0  0.23523  0.75000  0.98070  1.0000
  O   O1377     1.0  0.26477  0.91667  0.81403  1.0000
  O   O1378     1.0  0.06587  0.94377  0.66677  1.0000
  O   O1379     1.0  0.10080  0.77710  0.83343  1.0000
  O   O1380     1.0  0.06587  0.88957  0.66677  1.0000
  O   O1381     1.0  0.10080  0.72290  0.83343  1.0000
  O   O1382     1.0  0.26747  0.72290  0.99990  1.0000
  O   O1383     1.0  0.23253  0.88957  0.83323  1.0000
  O   O1384     1.0  0.26747  0.77710  0.99990  1.0000
  O   O1385     1.0  0.23253  0.94377  0.83323  1.0000
  O   O1386     1.0  0.03160  0.91667  0.67350  1.0000
  O   O1387     1.0  0.13507  0.75000  0.84017  1.0000
  O   O1388     1.0  0.30173  0.75000  0.99317  1.0000
  O   O1389     1.0  0.19827  0.91667  0.82650  1.0000
  O   O1390     1.0  0.02697  0.95567  0.97583  1.0000
  O   O1391     1.0  0.13970  0.78900  0.80917  1.0000
  O   O1392     1.0  0.02697  0.87767  0.97583  1.0000
  O   O1393     1.0  0.13970  0.71100  0.80917  1.0000
  O   O1394     1.0  0.19363  0.87767  0.85750  1.0000
  O   O1395     1.0  0.30637  0.78900  0.69083  1.0000
  O   O1396     1.0  0.19363  0.95567  0.85750  1.0000
  O   O1397     1.0  0.03923  0.94567  0.91353  1.0000
  O   O1398     1.0  0.12743  0.77900  0.74687  1.0000
  O   O1399     1.0  0.03923  0.88767  0.91353  1.0000
  O   O1400     1.0  0.12743  0.72100  0.74687  1.0000
  O   O1401     1.0  0.20590  0.88767  0.91980  1.0000
  O   O1402     1.0  0.29410  0.77900  0.75313  1.0000
  O   O1403     1.0  0.20590  0.94567  0.91980  1.0000
  O   O1404     1.0  0.07053  0.91667  0.89710  1.0000
  O   O1405     1.0  0.09613  0.75000  0.73043  1.0000
  O   O1406     1.0  0.26280  0.75000  0.76957  1.0000
  O   O1407     1.0  0.23720  0.91667  0.93623  1.0000
  Si  Si583     1.0  0.14047  0.69037  0.89660  1.0000
  Si  Si584     1.0  0.02620  0.85703  0.72993  1.0000
  Si  Si585     1.0  0.14047  0.80963  0.89660  1.0000
  Si  Si586     1.0  0.02620  0.97630  0.72993  1.0000
  Si  Si587     1.0  0.19287  0.97630  0.77007  1.0000
  Si  Si588     1.0  0.30713  0.80963  0.93673  1.0000
  Si  Si589     1.0  0.19287  0.85703  0.77007  1.0000
  Si  Si590     1.0  0.10863  0.67787  0.95000  1.0000
  Si  Si591     1.0  0.05803  0.84453  0.78333  1.0000
  Si  Si592     1.0  0.10863  0.82213  0.95000  1.0000
  Si  Si593     1.0  0.05803  0.98880  0.78333  1.0000
  Si  Si594     1.0  0.22470  0.98880  0.71667  1.0000
  Si  Si595     1.0  0.27530  0.82213  0.88333  1.0000
  Si  Si596     1.0  0.22470  0.84453  0.71667  1.0000
  Si  Si597     1.0  0.09307  0.68453  0.68850  1.0000
  Si  Si598     1.0  0.07360  0.85120  0.85517  1.0000
  Si  Si599     1.0  0.09307  0.81547  0.68850  1.0000
  Si  Si600     1.0  0.07360  0.98213  0.85517  1.0000
  Si  Si601     1.0  0.24027  0.98213  0.97817  1.0000
  Si  Si602     1.0  0.25973  0.81547  0.81150  1.0000
  Si  Si603     1.0  0.24027  0.85120  0.97817  1.0000
  Si  Si604     1.0  0.04153  0.68380  0.68270  1.0000
  Si  Si605     1.0  0.12513  0.85047  0.84937  1.0000
  Si  Si606     1.0  0.04153  0.81620  0.68270  1.0000
  Si  Si607     1.0  0.12513  0.98287  0.84937  1.0000
  Si  Si608     1.0  0.29180  0.98287  0.98397  1.0000
  Si  Si609     1.0  0.20820  0.81620  0.81730  1.0000
  Si  Si610     1.0  0.29180  0.85047  0.98397  1.0000
  Si  Si611     1.0  0.20820  0.68380  0.81730  1.0000
  Si  Si612     1.0  0.02403  0.67867  0.94110  1.0000
  Si  Si613     1.0  0.14263  0.84533  0.77443  1.0000
  Si  Si614     1.0  0.02403  0.82133  0.94110  1.0000
  Si  Si615     1.0  0.14263  0.98800  0.77443  1.0000
  Si  Si616     1.0  0.30930  0.98800  0.72557  1.0000
  Si  Si617     1.0  0.19070  0.82133  0.89223  1.0000
  Si  Si618     1.0  0.30930  0.84533  0.72557  1.0000
  Si  Si619     1.0  0.19070  0.67867  0.89223  1.0000
  Si  Si620     1.0  0.06780  0.68957  0.90657  1.0000
  Si  Si621     1.0  0.09887  0.85623  0.73990  1.0000
  Si  Si622     1.0  0.06780  0.81043  0.90657  1.0000
  Si  Si623     1.0  0.09887  0.97710  0.73990  1.0000
  Si  Si624     1.0  0.26553  0.97710  0.76010  1.0000
  Si  Si625     1.0  0.23447  0.81043  0.92677  1.0000
  Si  Si626     1.0  0.26553  0.85623  0.76010  1.0000
  Si  Si627     1.0  0.13983  0.94247  0.89350  1.0000
  Si  Si628     1.0  0.02683  0.77580  0.72683  1.0000
  Si  Si629     1.0  0.13983  0.89087  0.89350  1.0000
  Si  Si630     1.0  0.02683  0.72420  0.72683  1.0000
  Si  Si631     1.0  0.19350  0.72420  0.77317  1.0000
  Si  Si632     1.0  0.30650  0.89087  0.93983  1.0000
  Si  Si633     1.0  0.19350  0.77580  0.77317  1.0000
  Si  Si634     1.0  0.30650  0.94247  0.93983  1.0000
  Si  Si635     1.0  0.10507  0.95883  0.94537  1.0000
  Si  Si636     1.0  0.06160  0.79217  0.77870  1.0000
  Si  Si637     1.0  0.10507  0.87450  0.94537  1.0000
  Si  Si638     1.0  0.06160  0.70783  0.77870  1.0000
  Si  Si639     1.0  0.22827  0.70783  0.72130  1.0000
  Si  Si640     1.0  0.27173  0.87450  0.88797  1.0000
  Si  Si641     1.0  0.22827  0.79217  0.72130  1.0000
  Si  Si642     1.0  0.27173  0.95883  0.88797  1.0000
  Si  Si643     1.0  0.09110  0.94260  0.68007  1.0000
  Si  Si644     1.0  0.07557  0.77593  0.84673  1.0000
  Si  Si645     1.0  0.09110  0.89073  0.68007  1.0000
  Si  Si646     1.0  0.07557  0.72407  0.84673  1.0000
  Si  Si647     1.0  0.24223  0.72407  0.98660  1.0000
  Si  Si648     1.0  0.25777  0.89073  0.81993  1.0000
  Si  Si649     1.0  0.24223  0.77593  0.98660  1.0000
  Si  Si650     1.0  0.25777  0.94260  0.81993  1.0000
  Si  Si651     1.0  0.03950  0.94263  0.67277  1.0000
  Si  Si652     1.0  0.12717  0.77597  0.83943  1.0000
  Si  Si653     1.0  0.03950  0.89070  0.67277  1.0000
  Si  Si654     1.0  0.12717  0.72403  0.83943  1.0000
  Si  Si655     1.0  0.20617  0.89070  0.82723  1.0000
  Si  Si656     1.0  0.29383  0.77597  0.99390  1.0000
  Si  Si657     1.0  0.20617  0.94263  0.82723  1.0000
  Si  Si658     1.0  0.02190  0.95980  0.93623  1.0000
  Si  Si659     1.0  0.14477  0.79313  0.76957  1.0000
  Si  Si660     1.0  0.02190  0.87353  0.93623  1.0000
  Si  Si661     1.0  0.14477  0.70687  0.76957  1.0000
  Si  Si662     1.0  0.18857  0.87353  0.89710  1.0000
  Si  Si663     1.0  0.31143  0.79313  0.73043  1.0000
  Si  Si664     1.0  0.18857  0.95980  0.89710  1.0000
  Si  Si665     1.0  0.06490  0.94293  0.90307  1.0000
  Si  Si666     1.0  0.10177  0.77627  0.73640  1.0000
  Si  Si667     1.0  0.06490  0.89040  0.90307  1.0000
  Si  Si668     1.0  0.10177  0.72373  0.73640  1.0000
  Si  Si669     1.0  0.23157  0.89040  0.93027  1.0000
  Si  Si670     1.0  0.26843  0.77627  0.76360  1.0000
  Si  Si671     1.0  0.23157  0.94293  0.93027  1.0000
  O   O1408     1.0  0.50040  0.02330  0.23393  1.0000
  O   O1409     1.0  0.66627  0.18997  0.06727  1.0000
  O   O1410     1.0  0.50040  0.14337  0.23393  1.0000
  O   O1411     1.0  0.33373  0.14337  0.26607  1.0000
  O   O1412     1.0  0.33373  0.02330  0.26607  1.0000
  O   O1413     1.0  0.46250  0.02477  0.26693  1.0000
  O   O1414     1.0  0.37083  0.19143  0.10027  1.0000
  O   O1415     1.0  0.46250  0.14190  0.26693  1.0000
  O   O1416     1.0  0.62917  0.14190  0.23307  1.0000
  O   O1417     1.0  0.62917  0.02477  0.23307  1.0000
  O   O1418     1.0  0.46650  0.04553  0.20837  1.0000
  O   O1419     1.0  0.36683  0.21220  0.04170  1.0000
  O   O1420     1.0  0.46650  0.12113  0.20837  1.0000
  O   O1421     1.0  0.63317  0.12113  0.29163  1.0000
  O   O1422     1.0  0.63317  0.04553  0.29163  1.0000
  O   O1423     1.0  0.46573  0.00113  0.21087  1.0000
  O   O1424     1.0  0.36760  0.16780  0.04420  1.0000
  O   O1425     1.0  0.46573  0.16553  0.21087  1.0000
  O   O1426     1.0  0.63240  0.16553  0.28913  1.0000
  O   O1427     1.0  0.53427  0.16780  0.12247  1.0000
  O   O1428     1.0  0.63240  0.00113  0.28913  1.0000
  O   O1429     1.0  0.44300  0.01283  0.32407  1.0000
  O   O1430     1.0  0.39033  0.17950  0.15740  1.0000
  O   O1431     1.0  0.44300  0.15383  0.32407  1.0000
  O   O1432     1.0  0.60967  0.15383  0.17593  1.0000
  O   O1433     1.0  0.60967  0.01283  0.17593  1.0000
  O   O1434     1.0  0.39010  0.15183  0.10517  1.0000
  O   O1435     1.0  0.44323  0.18150  0.27183  1.0000
  O   O1436     1.0  0.39010  0.01483  0.10517  1.0000
  O   O1437     1.0  0.55677  0.01483  0.06150  1.0000
  O   O1438     1.0  0.60990  0.18150  0.22817  1.0000
  O   O1439     1.0  0.55677  0.15183  0.06150  1.0000
  O   O1440     1.0  0.41903  0.02210  0.27020  1.0000
  O   O1441     1.0  0.41430  0.18877  0.10353  1.0000
  O   O1442     1.0  0.41903  0.14457  0.27020  1.0000
  O   O1443     1.0  0.58570  0.14457  0.22980  1.0000
  O   O1444     1.0  0.58570  0.02210  0.22980  1.0000
  O   O1445     1.0  0.43033  0.04320  0.03533  1.0000
  O   O1446     1.0  0.43033  0.12347  0.03533  1.0000
  O   O1447     1.0  0.59700  0.12347  0.13133  1.0000
  O   O1448     1.0  0.59700  0.04320  0.13133  1.0000
  O   O1449     1.0  0.40113  0.01517  0.00917  1.0000
  O   O1450     1.0  0.40113  0.15150  0.00917  1.0000
  O   O1451     1.0  0.56780  0.15150  0.15750  1.0000
  O   O1452     1.0  0.59887  0.18183  0.32417  1.0000
  O   O1453     1.0  0.56780  0.01517  0.15750  1.0000
  O   O1454     1.0  0.43120  0.00033  0.05213  1.0000
  O   O1455     1.0  0.40213  0.16700  0.21880  1.0000
  O   O1456     1.0  0.43120  0.16633  0.05213  1.0000
  O   O1457     1.0  0.59787  0.16633  0.11453  1.0000
  O   O1458     1.0  0.56880  0.16700  0.28120  1.0000
  O   O1459     1.0  0.59787  0.00033  0.11453  1.0000
  O   O1460     1.0  0.36917  0.04217  0.02943  1.0000
  O   O1461     1.0  0.36917  0.12450  0.02943  1.0000
  O   O1462     1.0  0.53583  0.12450  0.13723  1.0000
  O   O1463     1.0  0.63083  0.20883  0.30390  1.0000
  O   O1464     1.0  0.53583  0.04217  0.13723  1.0000
  O   O1465     1.0  0.36153  0.01233  0.31477  1.0000
  O   O1466     1.0  0.36153  0.15433  0.31477  1.0000
  O   O1467     1.0  0.52820  0.15433  0.18523  1.0000
  O   O1468     1.0  0.63847  0.17900  0.01857  1.0000
  O   O1469     1.0  0.52820  0.01233  0.18523  1.0000
  O   O1470     1.0  0.37670  0.02603  0.25567  1.0000
  O   O1471     1.0  0.37670  0.14063  0.25567  1.0000
  O   O1472     1.0  0.54337  0.14063  0.24433  1.0000
  O   O1473     1.0  0.62330  0.19270  0.07767  1.0000
  O   O1474     1.0  0.54337  0.02603  0.24433  1.0000
  O   O1475     1.0  0.47573  0.15297  0.09440  1.0000
  O   O1476     1.0  0.35760  0.18037  0.26107  1.0000
  O   O1477     1.0  0.47573  0.01370  0.09440  1.0000
  O   O1478     1.0  0.64240  0.01370  0.07227  1.0000
  O   O1479     1.0  0.52427  0.18037  0.23893  1.0000
  O   O1480     1.0  0.64240  0.15297  0.07227  1.0000
  O   O1481     1.0  0.40670  0.04377  0.21520  1.0000
  O   O1482     1.0  0.40670  0.12290  0.21520  1.0000
  O   O1483     1.0  0.57337  0.12290  0.28480  1.0000
  O   O1484     1.0  0.57337  0.04377  0.28480  1.0000
  O   O1485     1.0  0.33630  0.11827  0.07230  1.0000
  O   O1486     1.0  0.33630  0.04840  0.07230  1.0000
  O   O1487     1.0  0.50297  0.04840  0.09437  1.0000
  O   O1488     1.0  0.66370  0.21507  0.26103  1.0000
  O   O1489     1.0  0.50297  0.11827  0.09437  1.0000
  O   O1490     1.0  0.37730  0.11037  0.09143  1.0000
  O   O1491     1.0  0.37730  0.05630  0.09143  1.0000
  O   O1492     1.0  0.54397  0.05630  0.07523  1.0000
  O   O1493     1.0  0.54397  0.11037  0.07523  1.0000
  O   O1494     1.0  0.35790  0.08333  0.04770  1.0000
  O   O1495     1.0  0.52457  0.08333  0.11897  1.0000
  O   O1496     1.0  0.39277  0.12037  0.15203  1.0000
  O   O1497     1.0  0.39277  0.04630  0.15203  1.0000
  O   O1498     1.0  0.55943  0.04630  0.01463  1.0000
  O   O1499     1.0  0.55943  0.12037  0.01463  1.0000
  O   O1500     1.0  0.41967  0.11940  0.09967  1.0000
  O   O1501     1.0  0.41967  0.04727  0.09967  1.0000
  O   O1502     1.0  0.58633  0.04727  0.06700  1.0000
  O   O1503     1.0  0.58633  0.11940  0.06700  1.0000
  O   O1504     1.0  0.40190  0.08333  0.18597  1.0000
  O   O1505     1.0  0.56857  0.08333  0.31403  1.0000
  O   O1506     1.0  0.43413  0.11043  0.16677  1.0000
  O   O1507     1.0  0.43413  0.05623  0.16677  1.0000
  O   O1508     1.0  0.60080  0.05623  0.33323  1.0000
  O   O1509     1.0  0.60080  0.11043  0.33323  1.0000
  O   O1510     1.0  0.46840  0.08333  0.17350  1.0000
  O   O1511     1.0  0.63507  0.08333  0.32650  1.0000
  O   O1512     1.0  0.47303  0.12233  0.14250  1.0000
  O   O1513     1.0  0.47303  0.04433  0.14250  1.0000
  O   O1514     1.0  0.63970  0.04433  0.02417  1.0000
  O   O1515     1.0  0.63970  0.12233  0.02417  1.0000
  O   O1516     1.0  0.46077  0.11233  0.08020  1.0000
  O   O1517     1.0  0.46077  0.05433  0.08020  1.0000
  O   O1518     1.0  0.62743  0.05433  0.08647  1.0000
  O   O1519     1.0  0.62743  0.11233  0.08647  1.0000
  O   O1520     1.0  0.42947  0.08333  0.06377  1.0000
  O   O1521     1.0  0.59613  0.08333  0.10290  1.0000
  Si  Si672     1.0  0.47380  0.02370  0.22993  1.0000
  Si  Si673     1.0  0.35953  0.19037  0.06327  1.0000
  Si  Si674     1.0  0.47380  0.14297  0.22993  1.0000
  Si  Si675     1.0  0.64047  0.14297  0.27007  1.0000
  Si  Si676     1.0  0.64047  0.02370  0.27007  1.0000
  Si  Si677     1.0  0.44197  0.01120  0.28333  1.0000
  Si  Si678     1.0  0.39137  0.17787  0.11667  1.0000
  Si  Si679     1.0  0.44197  0.15547  0.28333  1.0000
  Si  Si680     1.0  0.60863  0.15547  0.21667  1.0000
  Si  Si681     1.0  0.60863  0.01120  0.21667  1.0000
  Si  Si682     1.0  0.42640  0.01787  0.02183  1.0000
  Si  Si683     1.0  0.42640  0.14880  0.02183  1.0000
  Si  Si684     1.0  0.59307  0.14880  0.14483  1.0000
  Si  Si685     1.0  0.59307  0.01787  0.14483  1.0000
  Si  Si686     1.0  0.37487  0.01713  0.01603  1.0000
  Si  Si687     1.0  0.37487  0.14953  0.01603  1.0000
  Si  Si688     1.0  0.54153  0.14953  0.15063  1.0000
  Si  Si689     1.0  0.62513  0.18380  0.31730  1.0000
  Si  Si690     1.0  0.54153  0.01713  0.15063  1.0000
  Si  Si691     1.0  0.35737  0.01200  0.27443  1.0000
  Si  Si692     1.0  0.35737  0.15467  0.27443  1.0000
  Si  Si693     1.0  0.52403  0.15467  0.22557  1.0000
  Si  Si694     1.0  0.64263  0.17867  0.05890  1.0000
  Si  Si695     1.0  0.52403  0.01200  0.22557  1.0000
  Si  Si696     1.0  0.40113  0.02290  0.23990  1.0000
  Si  Si697     1.0  0.40113  0.14377  0.23990  1.0000
  Si  Si698     1.0  0.56780  0.14377  0.26010  1.0000
  Si  Si699     1.0  0.56780  0.02290  0.26010  1.0000
  Si  Si700     1.0  0.36017  0.10913  0.06017  1.0000
  Si  Si701     1.0  0.36017  0.05753  0.06017  1.0000
  Si  Si702     1.0  0.52683  0.05753  0.10650  1.0000
  Si  Si703     1.0  0.52683  0.10913  0.10650  1.0000
  Si  Si704     1.0  0.39493  0.12550  0.11203  1.0000
  Si  Si705     1.0  0.39493  0.04117  0.11203  1.0000
  Si  Si706     1.0  0.56160  0.04117  0.05463  1.0000
  Si  Si707     1.0  0.56160  0.12550  0.05463  1.0000
  Si  Si708     1.0  0.40890  0.10927  0.18007  1.0000
  Si  Si709     1.0  0.40890  0.05740  0.18007  1.0000
  Si  Si710     1.0  0.57557  0.05740  0.31993  1.0000
  Si  Si711     1.0  0.57557  0.10927  0.31993  1.0000
  Si  Si712     1.0  0.46050  0.10930  0.17277  1.0000
  Si  Si713     1.0  0.46050  0.05737  0.17277  1.0000
  Si  Si714     1.0  0.62717  0.05737  0.32723  1.0000
  Si  Si715     1.0  0.62717  0.10930  0.32723  1.0000
  Si  Si716     1.0  0.47810  0.12647  0.10290  1.0000
  Si  Si717     1.0  0.47810  0.04020  0.10290  1.0000
  Si  Si718     1.0  0.64477  0.04020  0.06377  1.0000
  Si  Si719     1.0  0.64477  0.12647  0.06377  1.0000
  Si  Si720     1.0  0.43510  0.10960  0.06973  1.0000
  Si  Si721     1.0  0.43510  0.05707  0.06973  1.0000
  Si  Si722     1.0  0.60177  0.05707  0.09693  1.0000
  Si  Si723     1.0  0.60177  0.10960  0.09693  1.0000
  O   O1522     1.0  0.50040  0.02330  0.56727  1.0000
  O   O1523     1.0  0.66627  0.18997  0.40060  1.0000
  O   O1524     1.0  0.50040  0.14337  0.56727  1.0000
  O   O1525     1.0  0.33373  0.14337  0.59940  1.0000
  O   O1526     1.0  0.33373  0.02330  0.59940  1.0000
  O   O1527     1.0  0.46250  0.02477  0.60027  1.0000
  O   O1528     1.0  0.37083  0.19143  0.43360  1.0000
  O   O1529     1.0  0.46250  0.14190  0.60027  1.0000
  O   O1530     1.0  0.62917  0.14190  0.56640  1.0000
  O   O1531     1.0  0.62917  0.02477  0.56640  1.0000
  O   O1532     1.0  0.46650  0.04553  0.54170  1.0000
  O   O1533     1.0  0.36683  0.21220  0.37503  1.0000
  O   O1534     1.0  0.46650  0.12113  0.54170  1.0000
  O   O1535     1.0  0.63317  0.12113  0.62497  1.0000
  O   O1536     1.0  0.63317  0.04553  0.62497  1.0000
  O   O1537     1.0  0.46573  0.00113  0.54420  1.0000
  O   O1538     1.0  0.36760  0.16780  0.37753  1.0000
  O   O1539     1.0  0.46573  0.16553  0.54420  1.0000
  O   O1540     1.0  0.63240  0.16553  0.62247  1.0000
  O   O1541     1.0  0.53427  0.16780  0.45580  1.0000
  O   O1542     1.0  0.63240  0.00113  0.62247  1.0000
  O   O1543     1.0  0.44300  0.01283  0.65740  1.0000
  O   O1544     1.0  0.39033  0.17950  0.49073  1.0000
  O   O1545     1.0  0.44300  0.15383  0.65740  1.0000
  O   O1546     1.0  0.60967  0.15383  0.50927  1.0000
  O   O1547     1.0  0.60967  0.01283  0.50927  1.0000
  O   O1548     1.0  0.39010  0.15183  0.43850  1.0000
  O   O1549     1.0  0.44323  0.18150  0.60517  1.0000
  O   O1550     1.0  0.39010  0.01483  0.43850  1.0000
  O   O1551     1.0  0.55677  0.01483  0.39483  1.0000
  O   O1552     1.0  0.60990  0.18150  0.56150  1.0000
  O   O1553     1.0  0.55677  0.15183  0.39483  1.0000
  O   O1554     1.0  0.41903  0.02210  0.60353  1.0000
  O   O1555     1.0  0.41430  0.18877  0.43687  1.0000
  O   O1556     1.0  0.41903  0.14457  0.60353  1.0000
  O   O1557     1.0  0.58570  0.14457  0.56313  1.0000
  O   O1558     1.0  0.58570  0.02210  0.56313  1.0000
  O   O1559     1.0  0.43033  0.04320  0.36867  1.0000
  O   O1560     1.0  0.43033  0.12347  0.36867  1.0000
  O   O1561     1.0  0.59700  0.12347  0.46467  1.0000
  O   O1562     1.0  0.59700  0.04320  0.46467  1.0000
  O   O1563     1.0  0.40113  0.01517  0.34250  1.0000
  O   O1564     1.0  0.40113  0.15150  0.34250  1.0000
  O   O1565     1.0  0.56780  0.15150  0.49083  1.0000
  O   O1566     1.0  0.59887  0.18183  0.65750  1.0000
  O   O1567     1.0  0.56780  0.01517  0.49083  1.0000
  O   O1568     1.0  0.43120  0.00033  0.38547  1.0000
  O   O1569     1.0  0.40213  0.16700  0.55213  1.0000
  O   O1570     1.0  0.43120  0.16633  0.38547  1.0000
  O   O1571     1.0  0.59787  0.16633  0.44787  1.0000
  O   O1572     1.0  0.56880  0.16700  0.61453  1.0000
  O   O1573     1.0  0.59787  0.00033  0.44787  1.0000
  O   O1574     1.0  0.36917  0.04217  0.36277  1.0000
  O   O1575     1.0  0.36917  0.12450  0.36277  1.0000
  O   O1576     1.0  0.53583  0.12450  0.47057  1.0000
  O   O1577     1.0  0.63083  0.20883  0.63723  1.0000
  O   O1578     1.0  0.53583  0.04217  0.47057  1.0000
  O   O1579     1.0  0.36153  0.01233  0.64810  1.0000
  O   O1580     1.0  0.36153  0.15433  0.64810  1.0000
  O   O1581     1.0  0.52820  0.15433  0.51857  1.0000
  O   O1582     1.0  0.63847  0.17900  0.35190  1.0000
  O   O1583     1.0  0.52820  0.01233  0.51857  1.0000
  O   O1584     1.0  0.37670  0.02603  0.58900  1.0000
  O   O1585     1.0  0.37670  0.14063  0.58900  1.0000
  O   O1586     1.0  0.54337  0.14063  0.57767  1.0000
  O   O1587     1.0  0.62330  0.19270  0.41100  1.0000
  O   O1588     1.0  0.54337  0.02603  0.57767  1.0000
  O   O1589     1.0  0.47573  0.15297  0.42773  1.0000
  O   O1590     1.0  0.35760  0.18037  0.59440  1.0000
  O   O1591     1.0  0.47573  0.01370  0.42773  1.0000
  O   O1592     1.0  0.64240  0.01370  0.40560  1.0000
  O   O1593     1.0  0.52427  0.18037  0.57227  1.0000
  O   O1594     1.0  0.64240  0.15297  0.40560  1.0000
  O   O1595     1.0  0.40670  0.04377  0.54853  1.0000
  O   O1596     1.0  0.40670  0.12290  0.54853  1.0000
  O   O1597     1.0  0.57337  0.12290  0.61813  1.0000
  O   O1598     1.0  0.57337  0.04377  0.61813  1.0000
  O   O1599     1.0  0.33630  0.11827  0.40563  1.0000
  O   O1600     1.0  0.33630  0.04840  0.40563  1.0000
  O   O1601     1.0  0.50297  0.04840  0.42770  1.0000
  O   O1602     1.0  0.66370  0.21507  0.59437  1.0000
  O   O1603     1.0  0.50297  0.11827  0.42770  1.0000
  O   O1604     1.0  0.37730  0.11037  0.42477  1.0000
  O   O1605     1.0  0.37730  0.05630  0.42477  1.0000
  O   O1606     1.0  0.54397  0.05630  0.40857  1.0000
  O   O1607     1.0  0.54397  0.11037  0.40857  1.0000
  O   O1608     1.0  0.35790  0.08333  0.38103  1.0000
  O   O1609     1.0  0.52457  0.08333  0.45230  1.0000
  O   O1610     1.0  0.39277  0.12037  0.48537  1.0000
  O   O1611     1.0  0.39277  0.04630  0.48537  1.0000
  O   O1612     1.0  0.55943  0.04630  0.34797  1.0000
  O   O1613     1.0  0.55943  0.12037  0.34797  1.0000
  O   O1614     1.0  0.41967  0.11940  0.43300  1.0000
  O   O1615     1.0  0.41967  0.04727  0.43300  1.0000
  O   O1616     1.0  0.58633  0.04727  0.40033  1.0000
  O   O1617     1.0  0.58633  0.11940  0.40033  1.0000
  O   O1618     1.0  0.40190  0.08333  0.51930  1.0000
  O   O1619     1.0  0.56857  0.08333  0.64737  1.0000
  O   O1620     1.0  0.43413  0.11043  0.50010  1.0000
  O   O1621     1.0  0.43413  0.05623  0.50010  1.0000
  O   O1622     1.0  0.60080  0.05623  0.66657  1.0000
  O   O1623     1.0  0.60080  0.11043  0.66657  1.0000
  O   O1624     1.0  0.46840  0.08333  0.50683  1.0000
  O   O1625     1.0  0.63507  0.08333  0.65983  1.0000
  O   O1626     1.0  0.47303  0.12233  0.47583  1.0000
  O   O1627     1.0  0.47303  0.04433  0.47583  1.0000
  O   O1628     1.0  0.63970  0.04433  0.35750  1.0000
  O   O1629     1.0  0.63970  0.12233  0.35750  1.0000
  O   O1630     1.0  0.46077  0.11233  0.41353  1.0000
  O   O1631     1.0  0.46077  0.05433  0.41353  1.0000
  O   O1632     1.0  0.62743  0.05433  0.41980  1.0000
  O   O1633     1.0  0.62743  0.11233  0.41980  1.0000
  O   O1634     1.0  0.42947  0.08333  0.39710  1.0000
  O   O1635     1.0  0.59613  0.08333  0.43623  1.0000
  Si  Si724     1.0  0.47380  0.02370  0.56327  1.0000
  Si  Si725     1.0  0.35953  0.19037  0.39660  1.0000
  Si  Si726     1.0  0.47380  0.14297  0.56327  1.0000
  Si  Si727     1.0  0.64047  0.14297  0.60340  1.0000
  Si  Si728     1.0  0.64047  0.02370  0.60340  1.0000
  Al  Al14      1.0  0.44197  0.01120  0.61667  1.0000
  Si  Si729     1.0  0.39137  0.17787  0.45000  1.0000
  Si  Si730     1.0  0.44197  0.15547  0.61667  1.0000
  Si  Si731     1.0  0.60863  0.15547  0.55000  1.0000
  Al  Al15      1.0  0.60863  0.01120  0.55000  1.0000
  Si  Si732     1.0  0.42640  0.01787  0.35517  1.0000
  Si  Si733     1.0  0.42640  0.14880  0.35517  1.0000
  Si  Si734     1.0  0.59307  0.14880  0.47817  1.0000
  Si  Si735     1.0  0.59307  0.01787  0.47817  1.0000
  Si  Si736     1.0  0.37487  0.01713  0.34937  1.0000
  Si  Si737     1.0  0.37487  0.14953  0.34937  1.0000
  Si  Si738     1.0  0.54153  0.14953  0.48397  1.0000
  Si  Si739     1.0  0.62513  0.18380  0.65063  1.0000
  Si  Si740     1.0  0.54153  0.01713  0.48397  1.0000
  Si  Si741     1.0  0.35737  0.01200  0.60777  1.0000
  Si  Si742     1.0  0.35737  0.15467  0.60777  1.0000
  Si  Si743     1.0  0.52403  0.15467  0.55890  1.0000
  Si  Si744     1.0  0.64263  0.17867  0.39223  1.0000
  Si  Si745     1.0  0.52403  0.01200  0.55890  1.0000
  Si  Si746     1.0  0.40113  0.02290  0.57323  1.0000
  Si  Si747     1.0  0.40113  0.14377  0.57323  1.0000
  Si  Si748     1.0  0.56780  0.14377  0.59343  1.0000
  Si  Si749     1.0  0.56780  0.02290  0.59343  1.0000
  Si  Si750     1.0  0.36017  0.10913  0.39350  1.0000
  Si  Si751     1.0  0.36017  0.05753  0.39350  1.0000
  Si  Si752     1.0  0.52683  0.05753  0.43983  1.0000
  Si  Si753     1.0  0.52683  0.10913  0.43983  1.0000
  Si  Si754     1.0  0.39493  0.12550  0.44537  1.0000
  Si  Si755     1.0  0.39493  0.04117  0.44537  1.0000
  Si  Si756     1.0  0.56160  0.04117  0.38797  1.0000
  Si  Si757     1.0  0.56160  0.12550  0.38797  1.0000
  Si  Si758     1.0  0.40890  0.10927  0.51340  1.0000
  Si  Si759     1.0  0.40890  0.05740  0.51340  1.0000
  Si  Si760     1.0  0.57557  0.05740  0.65327  1.0000
  Si  Si761     1.0  0.57557  0.10927  0.65327  1.0000
  Si  Si762     1.0  0.46050  0.10930  0.50610  1.0000
  Si  Si763     1.0  0.46050  0.05737  0.50610  1.0000
  Si  Si764     1.0  0.62717  0.05737  0.66057  1.0000
  Si  Si765     1.0  0.62717  0.10930  0.66057  1.0000
  Si  Si766     1.0  0.47810  0.12647  0.43623  1.0000
  Si  Si767     1.0  0.47810  0.04020  0.43623  1.0000
  Si  Si768     1.0  0.64477  0.04020  0.39710  1.0000
  Si  Si769     1.0  0.64477  0.12647  0.39710  1.0000
  Si  Si770     1.0  0.43510  0.10960  0.40307  1.0000
  Si  Si771     1.0  0.43510  0.05707  0.40307  1.0000
  Si  Si772     1.0  0.60177  0.05707  0.43027  1.0000
  Si  Si773     1.0  0.60177  0.10960  0.43027  1.0000
  O   O1636     1.0  0.50040  0.02330  0.90060  1.0000
  O   O1637     1.0  0.66627  0.18997  0.73393  1.0000
  O   O1638     1.0  0.50040  0.14337  0.90060  1.0000
  O   O1639     1.0  0.33373  0.14337  0.93273  1.0000
  O   O1640     1.0  0.33373  0.02330  0.93273  1.0000
  O   O1641     1.0  0.46250  0.02477  0.93360  1.0000
  O   O1642     1.0  0.37083  0.19143  0.76693  1.0000
  O   O1643     1.0  0.46250  0.14190  0.93360  1.0000
  O   O1644     1.0  0.62917  0.14190  0.89973  1.0000
  O   O1645     1.0  0.62917  0.02477  0.89973  1.0000
  O   O1646     1.0  0.46650  0.04553  0.87503  1.0000
  O   O1647     1.0  0.36683  0.21220  0.70837  1.0000
  O   O1648     1.0  0.46650  0.12113  0.87503  1.0000
  O   O1649     1.0  0.63317  0.12113  0.95830  1.0000
  O   O1650     1.0  0.63317  0.04553  0.95830  1.0000
  O   O1651     1.0  0.46573  0.00113  0.87753  1.0000
  O   O1652     1.0  0.36760  0.16780  0.71087  1.0000
  O   O1653     1.0  0.46573  0.16553  0.87753  1.0000
  O   O1654     1.0  0.63240  0.16553  0.95580  1.0000
  O   O1655     1.0  0.53427  0.16780  0.78913  1.0000
  O   O1656     1.0  0.63240  0.00113  0.95580  1.0000
  O   O1657     1.0  0.44300  0.01283  0.99073  1.0000
  O   O1658     1.0  0.39033  0.17950  0.82407  1.0000
  O   O1659     1.0  0.44300  0.15383  0.99073  1.0000
  O   O1660     1.0  0.60967  0.15383  0.84260  1.0000
  O   O1661     1.0  0.60967  0.01283  0.84260  1.0000
  O   O1662     1.0  0.39010  0.15183  0.77183  1.0000
  O   O1663     1.0  0.44323  0.18150  0.93850  1.0000
  O   O1664     1.0  0.39010  0.01483  0.77183  1.0000
  O   O1665     1.0  0.55677  0.01483  0.72817  1.0000
  O   O1666     1.0  0.60990  0.18150  0.89483  1.0000
  O   O1667     1.0  0.55677  0.15183  0.72817  1.0000
  O   O1668     1.0  0.41903  0.02210  0.93687  1.0000
  O   O1669     1.0  0.41430  0.18877  0.77020  1.0000
  O   O1670     1.0  0.41903  0.14457  0.93687  1.0000
  O   O1671     1.0  0.58570  0.14457  0.89647  1.0000
  O   O1672     1.0  0.58570  0.02210  0.89647  1.0000
  O   O1673     1.0  0.43033  0.04320  0.70200  1.0000
  O   O1674     1.0  0.43033  0.12347  0.70200  1.0000
  O   O1675     1.0  0.59700  0.12347  0.79800  1.0000
  O   O1676     1.0  0.59700  0.04320  0.79800  1.0000
  O   O1677     1.0  0.40113  0.01517  0.67583  1.0000
  O   O1678     1.0  0.40113  0.15150  0.67583  1.0000
  O   O1679     1.0  0.56780  0.15150  0.82417  1.0000
  O   O1680     1.0  0.59887  0.18183  0.99083  1.0000
  O   O1681     1.0  0.56780  0.01517  0.82417  1.0000
  O   O1682     1.0  0.43120  0.00033  0.71880  1.0000
  O   O1683     1.0  0.40213  0.16700  0.88547  1.0000
  O   O1684     1.0  0.43120  0.16633  0.71880  1.0000
  O   O1685     1.0  0.59787  0.16633  0.78120  1.0000
  O   O1686     1.0  0.56880  0.16700  0.94787  1.0000
  O   O1687     1.0  0.59787  0.00033  0.78120  1.0000
  O   O1688     1.0  0.36917  0.04217  0.69610  1.0000
  O   O1689     1.0  0.36917  0.12450  0.69610  1.0000
  O   O1690     1.0  0.53583  0.12450  0.80390  1.0000
  O   O1691     1.0  0.63083  0.20883  0.97057  1.0000
  O   O1692     1.0  0.53583  0.04217  0.80390  1.0000
  O   O1693     1.0  0.36153  0.01233  0.98143  1.0000
  O   O1694     1.0  0.36153  0.15433  0.98143  1.0000
  O   O1695     1.0  0.52820  0.15433  0.85190  1.0000
  O   O1696     1.0  0.63847  0.17900  0.68523  1.0000
  O   O1697     1.0  0.52820  0.01233  0.85190  1.0000
  O   O1698     1.0  0.37670  0.02603  0.92233  1.0000
  O   O1699     1.0  0.37670  0.14063  0.92233  1.0000
  O   O1700     1.0  0.54337  0.14063  0.91100  1.0000
  O   O1701     1.0  0.62330  0.19270  0.74433  1.0000
  O   O1702     1.0  0.54337  0.02603  0.91100  1.0000
  O   O1703     1.0  0.47573  0.15297  0.76107  1.0000
  O   O1704     1.0  0.35760  0.18037  0.92773  1.0000
  O   O1705     1.0  0.47573  0.01370  0.76107  1.0000
  O   O1706     1.0  0.64240  0.01370  0.73893  1.0000
  O   O1707     1.0  0.52427  0.18037  0.90560  1.0000
  O   O1708     1.0  0.64240  0.15297  0.73893  1.0000
  O   O1709     1.0  0.40670  0.04377  0.88187  1.0000
  O   O1710     1.0  0.40670  0.12290  0.88187  1.0000
  O   O1711     1.0  0.57337  0.12290  0.95147  1.0000
  O   O1712     1.0  0.57337  0.04377  0.95147  1.0000
  O   O1713     1.0  0.33630  0.11827  0.73897  1.0000
  O   O1714     1.0  0.33630  0.04840  0.73897  1.0000
  O   O1715     1.0  0.50297  0.04840  0.76103  1.0000
  O   O1716     1.0  0.66370  0.21507  0.92770  1.0000
  O   O1717     1.0  0.50297  0.11827  0.76103  1.0000
  O   O1718     1.0  0.37730  0.11037  0.75810  1.0000
  O   O1719     1.0  0.37730  0.05630  0.75810  1.0000
  O   O1720     1.0  0.54397  0.05630  0.74190  1.0000
  O   O1721     1.0  0.54397  0.11037  0.74190  1.0000
  O   O1722     1.0  0.35790  0.08333  0.71437  1.0000
  O   O1723     1.0  0.52457  0.08333  0.78563  1.0000
  O   O1724     1.0  0.39277  0.12037  0.81870  1.0000
  O   O1725     1.0  0.39277  0.04630  0.81870  1.0000
  O   O1726     1.0  0.55943  0.04630  0.68130  1.0000
  O   O1727     1.0  0.55943  0.12037  0.68130  1.0000
  O   O1728     1.0  0.41967  0.11940  0.76633  1.0000
  O   O1729     1.0  0.41967  0.04727  0.76633  1.0000
  O   O1730     1.0  0.58633  0.04727  0.73367  1.0000
  O   O1731     1.0  0.58633  0.11940  0.73367  1.0000
  O   O1732     1.0  0.40190  0.08333  0.85263  1.0000
  O   O1733     1.0  0.56857  0.08333  0.98070  1.0000
  O   O1734     1.0  0.43413  0.11043  0.83343  1.0000
  O   O1735     1.0  0.43413  0.05623  0.83343  1.0000
  O   O1736     1.0  0.60080  0.05623  0.99990  1.0000
  O   O1737     1.0  0.60080  0.11043  0.99990  1.0000
  O   O1738     1.0  0.46840  0.08333  0.84017  1.0000
  O   O1739     1.0  0.63507  0.08333  0.99317  1.0000
  O   O1740     1.0  0.47303  0.12233  0.80917  1.0000
  O   O1741     1.0  0.47303  0.04433  0.80917  1.0000
  O   O1742     1.0  0.63970  0.04433  0.69083  1.0000
  O   O1743     1.0  0.63970  0.12233  0.69083  1.0000
  O   O1744     1.0  0.46077  0.11233  0.74687  1.0000
  O   O1745     1.0  0.46077  0.05433  0.74687  1.0000
  O   O1746     1.0  0.62743  0.05433  0.75313  1.0000
  O   O1747     1.0  0.62743  0.11233  0.75313  1.0000
  O   O1748     1.0  0.42947  0.08333  0.73043  1.0000
  O   O1749     1.0  0.59613  0.08333  0.76957  1.0000
  Si  Si774     1.0  0.47380  0.02370  0.89660  1.0000
  Si  Si775     1.0  0.35953  0.19037  0.72993  1.0000
  Si  Si776     1.0  0.47380  0.14297  0.89660  1.0000
  Si  Si777     1.0  0.64047  0.14297  0.93673  1.0000
  Si  Si778     1.0  0.64047  0.02370  0.93673  1.0000
  Si  Si779     1.0  0.44197  0.01120  0.95000  1.0000
  Si  Si780     1.0  0.39137  0.17787  0.78333  1.0000
  Si  Si781     1.0  0.44197  0.15547  0.95000  1.0000
  Si  Si782     1.0  0.60863  0.15547  0.88333  1.0000
  Si  Si783     1.0  0.60863  0.01120  0.88333  1.0000
  Si  Si784     1.0  0.42640  0.01787  0.68850  1.0000
  Si  Si785     1.0  0.42640  0.14880  0.68850  1.0000
  Si  Si786     1.0  0.59307  0.14880  0.81150  1.0000
  Si  Si787     1.0  0.59307  0.01787  0.81150  1.0000
  Si  Si788     1.0  0.37487  0.01713  0.68270  1.0000
  Si  Si789     1.0  0.37487  0.14953  0.68270  1.0000
  Si  Si790     1.0  0.54153  0.14953  0.81730  1.0000
  Si  Si791     1.0  0.62513  0.18380  0.98397  1.0000
  Si  Si792     1.0  0.54153  0.01713  0.81730  1.0000
  Si  Si793     1.0  0.35737  0.01200  0.94110  1.0000
  Si  Si794     1.0  0.35737  0.15467  0.94110  1.0000
  Si  Si795     1.0  0.52403  0.15467  0.89223  1.0000
  Si  Si796     1.0  0.64263  0.17867  0.72557  1.0000
  Si  Si797     1.0  0.52403  0.01200  0.89223  1.0000
  Si  Si798     1.0  0.40113  0.02290  0.90657  1.0000
  Si  Si799     1.0  0.40113  0.14377  0.90657  1.0000
  Si  Si800     1.0  0.56780  0.14377  0.92677  1.0000
  Si  Si801     1.0  0.56780  0.02290  0.92677  1.0000
  Si  Si802     1.0  0.36017  0.10913  0.72683  1.0000
  Si  Si803     1.0  0.36017  0.05753  0.72683  1.0000
  Si  Si804     1.0  0.52683  0.05753  0.77317  1.0000
  Si  Si805     1.0  0.52683  0.10913  0.77317  1.0000
  Si  Si806     1.0  0.39493  0.12550  0.77870  1.0000
  Si  Si807     1.0  0.39493  0.04117  0.77870  1.0000
  Si  Si808     1.0  0.56160  0.04117  0.72130  1.0000
  Si  Si809     1.0  0.56160  0.12550  0.72130  1.0000
  Si  Si810     1.0  0.40890  0.10927  0.84673  1.0000
  Si  Si811     1.0  0.40890  0.05740  0.84673  1.0000
  Si  Si812     1.0  0.57557  0.05740  0.98660  1.0000
  Si  Si813     1.0  0.57557  0.10927  0.98660  1.0000
  Si  Si814     1.0  0.46050  0.10930  0.83943  1.0000
  Al  Al16      1.0  0.46050  0.05737  0.83943  1.0000
  Si  Si815     1.0  0.62717  0.05737  0.99390  1.0000
  Si  Si816     1.0  0.62717  0.10930  0.99390  1.0000
  Si  Si817     1.0  0.47810  0.12647  0.76957  1.0000
  Si  Si818     1.0  0.47810  0.04020  0.76957  1.0000
  Si  Si819     1.0  0.64477  0.04020  0.73043  1.0000
  Si  Si820     1.0  0.64477  0.12647  0.73043  1.0000
  Si  Si821     1.0  0.43510  0.10960  0.73640  1.0000
  Si  Si822     1.0  0.43510  0.05707  0.73640  1.0000
  Si  Si823     1.0  0.60177  0.05707  0.76360  1.0000
  Si  Si824     1.0  0.60177  0.10960  0.76360  1.0000
  O   O1750     1.0  0.66627  0.85663  0.06727  1.0000
  O   O1751     1.0  0.66627  0.97670  0.06727  1.0000
  O   O1752     1.0  0.49960  0.97670  0.09940  1.0000
  O   O1753     1.0  0.33373  0.81003  0.26607  1.0000
  O   O1754     1.0  0.49960  0.85663  0.09940  1.0000
  O   O1755     1.0  0.37083  0.85810  0.10027  1.0000
  O   O1756     1.0  0.37083  0.97523  0.10027  1.0000
  O   O1757     1.0  0.53750  0.97523  0.06640  1.0000
  O   O1758     1.0  0.62917  0.80857  0.23307  1.0000
  O   O1759     1.0  0.53750  0.85810  0.06640  1.0000
  O   O1760     1.0  0.36683  0.87887  0.04170  1.0000
  O   O1761     1.0  0.36683  0.95447  0.04170  1.0000
  O   O1762     1.0  0.53350  0.95447  0.12497  1.0000
  O   O1763     1.0  0.63317  0.78780  0.29163  1.0000
  O   O1764     1.0  0.53350  0.87887  0.12497  1.0000
  O   O1765     1.0  0.36760  0.83447  0.04420  1.0000
  O   O1766     1.0  0.46573  0.83220  0.21087  1.0000
  O   O1767     1.0  0.36760  0.99887  0.04420  1.0000
  O   O1768     1.0  0.53427  0.99887  0.12247  1.0000
  O   O1769     1.0  0.63240  0.83220  0.28913  1.0000
  O   O1770     1.0  0.53427  0.83447  0.12247  1.0000
  O   O1771     1.0  0.39033  0.84617  0.15740  1.0000
  O   O1772     1.0  0.39033  0.98717  0.15740  1.0000
  O   O1773     1.0  0.55700  0.98717  0.00927  1.0000
  O   O1774     1.0  0.60967  0.82050  0.17593  1.0000
  O   O1775     1.0  0.55700  0.84617  0.00927  1.0000
  O   O1776     1.0  0.44323  0.98517  0.27183  1.0000
  O   O1777     1.0  0.39010  0.81850  0.10517  1.0000
  O   O1778     1.0  0.44323  0.84817  0.27183  1.0000
  O   O1779     1.0  0.60990  0.84817  0.22817  1.0000
  O   O1780     1.0  0.55677  0.81850  0.06150  1.0000
  O   O1781     1.0  0.60990  0.98517  0.22817  1.0000
  O   O1782     1.0  0.41430  0.85543  0.10353  1.0000
  O   O1783     1.0  0.41430  0.97790  0.10353  1.0000
  O   O1784     1.0  0.58097  0.97790  0.06313  1.0000
  O   O1785     1.0  0.58570  0.81123  0.22980  1.0000
  O   O1786     1.0  0.58097  0.85543  0.06313  1.0000
  O   O1787     1.0  0.40300  0.87653  0.20200  1.0000
  O   O1788     1.0  0.40300  0.95680  0.20200  1.0000
  O   O1789     1.0  0.56967  0.95680  0.29800  1.0000
  O   O1790     1.0  0.56967  0.87653  0.29800  1.0000
  O   O1791     1.0  0.43220  0.84850  0.17583  1.0000
  O   O1792     1.0  0.40113  0.81817  0.00917  1.0000
  O   O1793     1.0  0.43220  0.98483  0.17583  1.0000
  O   O1794     1.0  0.59887  0.98483  0.32417  1.0000
  O   O1795     1.0  0.59887  0.84850  0.32417  1.0000
  O   O1796     1.0  0.40213  0.83367  0.21880  1.0000
  O   O1797     1.0  0.43120  0.83300  0.05213  1.0000
  O   O1798     1.0  0.40213  0.99967  0.21880  1.0000
  O   O1799     1.0  0.56880  0.99967  0.28120  1.0000
  O   O1800     1.0  0.59787  0.83300  0.11453  1.0000
  O   O1801     1.0  0.56880  0.83367  0.28120  1.0000
  O   O1802     1.0  0.46417  0.87550  0.19610  1.0000
  O   O1803     1.0  0.36917  0.79117  0.02943  1.0000
  O   O1804     1.0  0.46417  0.95783  0.19610  1.0000
  O   O1805     1.0  0.63083  0.95783  0.30390  1.0000
  O   O1806     1.0  0.63083  0.87550  0.30390  1.0000
  O   O1807     1.0  0.47180  0.84567  0.14810  1.0000
  O   O1808     1.0  0.36153  0.82100  0.31477  1.0000
  O   O1809     1.0  0.47180  0.98767  0.14810  1.0000
  O   O1810     1.0  0.63847  0.98767  0.01857  1.0000
  O   O1811     1.0  0.63847  0.84567  0.01857  1.0000
  O   O1812     1.0  0.45663  0.85937  0.08900  1.0000
  O   O1813     1.0  0.37670  0.80730  0.25567  1.0000
  O   O1814     1.0  0.45663  0.97397  0.08900  1.0000
  O   O1815     1.0  0.62330  0.97397  0.07767  1.0000
  O   O1816     1.0  0.62330  0.85937  0.07767  1.0000
  O   O1817     1.0  0.35760  0.98630  0.26107  1.0000
  O   O1818     1.0  0.47573  0.81963  0.09440  1.0000
  O   O1819     1.0  0.35760  0.84703  0.26107  1.0000
  O   O1820     1.0  0.52427  0.84703  0.23893  1.0000
  O   O1821     1.0  0.64240  0.81963  0.07227  1.0000
  O   O1822     1.0  0.52427  0.98630  0.23893  1.0000
  O   O1823     1.0  0.42663  0.87710  0.04853  1.0000
  O   O1824     1.0  0.42663  0.95623  0.04853  1.0000
  O   O1825     1.0  0.59330  0.95623  0.11813  1.0000
  O   O1826     1.0  0.59330  0.87710  0.11813  1.0000
  O   O1827     1.0  0.49703  0.95160  0.23897  1.0000
  O   O1828     1.0  0.33630  0.78493  0.07230  1.0000
  O   O1829     1.0  0.49703  0.88173  0.23897  1.0000
  O   O1830     1.0  0.66370  0.88173  0.26103  1.0000
  O   O1831     1.0  0.66370  0.95160  0.26103  1.0000
  O   O1832     1.0  0.45603  0.94370  0.25810  1.0000
  O   O1833     1.0  0.45603  0.88963  0.25810  1.0000
  O   O1834     1.0  0.62270  0.88963  0.24190  1.0000
  O   O1835     1.0  0.62270  0.94370  0.24190  1.0000
  O   O1836     1.0  0.47543  0.91667  0.21437  1.0000
  O   O1837     1.0  0.64210  0.91667  0.28563  1.0000
  O   O1838     1.0  0.44057  0.95370  0.31870  1.0000
  O   O1839     1.0  0.44057  0.87963  0.31870  1.0000
  O   O1840     1.0  0.60723  0.87963  0.18130  1.0000
  O   O1841     1.0  0.60723  0.95370  0.18130  1.0000
  O   O1842     1.0  0.41367  0.95273  0.26633  1.0000
  O   O1843     1.0  0.41367  0.88060  0.26633  1.0000
  O   O1844     1.0  0.58033  0.88060  0.23367  1.0000
  O   O1845     1.0  0.58033  0.95273  0.23367  1.0000
  O   O1846     1.0  0.43143  0.91667  0.01930  1.0000
  O   O1847     1.0  0.59810  0.91667  0.14737  1.0000
  O   O1848     1.0  0.39920  0.94377  0.00010  1.0000
  O   O1849     1.0  0.39920  0.88957  0.00010  1.0000
  O   O1850     1.0  0.56587  0.88957  0.16657  1.0000
  O   O1851     1.0  0.56587  0.94377  0.16657  1.0000
  O   O1852     1.0  0.36493  0.91667  0.00683  1.0000
  O   O1853     1.0  0.53160  0.91667  0.15983  1.0000
  O   O1854     1.0  0.36030  0.95567  0.30917  1.0000
  O   O1855     1.0  0.36030  0.87767  0.30917  1.0000
  O   O1856     1.0  0.52697  0.87767  0.19083  1.0000
  O   O1857     1.0  0.52697  0.95567  0.19083  1.0000
  O   O1858     1.0  0.37257  0.94567  0.24687  1.0000
  O   O1859     1.0  0.37257  0.88767  0.24687  1.0000
  O   O1860     1.0  0.53923  0.88767  0.25313  1.0000
  O   O1861     1.0  0.53923  0.94567  0.25313  1.0000
  O   O1862     1.0  0.40387  0.91667  0.23043  1.0000
  O   O1863     1.0  0.57053  0.91667  0.26957  1.0000
  Si  Si825     1.0  0.35953  0.85703  0.06327  1.0000
  Si  Si826     1.0  0.35953  0.97630  0.06327  1.0000
  Si  Si827     1.0  0.52620  0.97630  0.10340  1.0000
  Si  Si828     1.0  0.64047  0.80963  0.27007  1.0000
  Si  Si829     1.0  0.52620  0.85703  0.10340  1.0000
  Si  Si830     1.0  0.39137  0.84453  0.11667  1.0000
  Si  Si831     1.0  0.39137  0.98880  0.11667  1.0000
  Si  Si832     1.0  0.55803  0.98880  0.05000  1.0000
  Si  Si833     1.0  0.60863  0.82213  0.21667  1.0000
  Si  Si834     1.0  0.55803  0.84453  0.05000  1.0000
  Si  Si835     1.0  0.40693  0.85120  0.18850  1.0000
  Si  Si836     1.0  0.40693  0.98213  0.18850  1.0000
  Si  Si837     1.0  0.57360  0.98213  0.31150  1.0000
  Si  Si838     1.0  0.57360  0.85120  0.31150  1.0000
  Si  Si839     1.0  0.45847  0.85047  0.18270  1.0000
  Si  Si840     1.0  0.37487  0.81620  0.01603  1.0000
  Si  Si841     1.0  0.45847  0.98287  0.18270  1.0000
  Si  Si842     1.0  0.62513  0.98287  0.31730  1.0000
  Si  Si843     1.0  0.62513  0.85047  0.31730  1.0000
  Si  Si844     1.0  0.47597  0.84533  0.10777  1.0000
  Si  Si845     1.0  0.35737  0.82133  0.27443  1.0000
  Si  Si846     1.0  0.47597  0.98800  0.10777  1.0000
  Si  Si847     1.0  0.64263  0.98800  0.05890  1.0000
  Si  Si848     1.0  0.64263  0.84533  0.05890  1.0000
  Si  Si849     1.0  0.43220  0.85623  0.07323  1.0000
  Si  Si850     1.0  0.43220  0.97710  0.07323  1.0000
  Si  Si851     1.0  0.59887  0.97710  0.09343  1.0000
  Si  Si852     1.0  0.59887  0.85623  0.09343  1.0000
  Si  Si853     1.0  0.47317  0.94247  0.22683  1.0000
  Si  Si854     1.0  0.47317  0.89087  0.22683  1.0000
  Si  Si855     1.0  0.63983  0.89087  0.27317  1.0000
  Si  Si856     1.0  0.63983  0.94247  0.27317  1.0000
  Si  Si857     1.0  0.43840  0.95883  0.27870  1.0000
  Si  Si858     1.0  0.43840  0.87450  0.27870  1.0000
  Si  Si859     1.0  0.60507  0.87450  0.22130  1.0000
  Si  Si860     1.0  0.60507  0.95883  0.22130  1.0000
  Si  Si861     1.0  0.42443  0.94260  0.01340  1.0000
  Si  Si862     1.0  0.42443  0.89073  0.01340  1.0000
  Si  Si863     1.0  0.59110  0.89073  0.15327  1.0000
  Si  Si864     1.0  0.59110  0.94260  0.15327  1.0000
  Si  Si865     1.0  0.37283  0.94263  0.00610  1.0000
  Si  Si866     1.0  0.37283  0.89070  0.00610  1.0000
  Si  Si867     1.0  0.53950  0.89070  0.16057  1.0000
  Si  Si868     1.0  0.53950  0.94263  0.16057  1.0000
  Si  Si869     1.0  0.35523  0.95980  0.26957  1.0000
  Si  Si870     1.0  0.35523  0.87353  0.26957  1.0000
  Si  Si871     1.0  0.52190  0.87353  0.23043  1.0000
  Si  Si872     1.0  0.52190  0.95980  0.23043  1.0000
  Si  Si873     1.0  0.39823  0.94293  0.23640  1.0000
  Si  Si874     1.0  0.39823  0.89040  0.23640  1.0000
  Si  Si875     1.0  0.56490  0.89040  0.26360  1.0000
  Si  Si876     1.0  0.56490  0.94293  0.26360  1.0000
  O   O1864     1.0  0.66627  0.85663  0.40060  1.0000
  O   O1865     1.0  0.66627  0.97670  0.40060  1.0000
  O   O1866     1.0  0.49960  0.97670  0.43273  1.0000
  O   O1867     1.0  0.33373  0.81003  0.59940  1.0000
  O   O1868     1.0  0.49960  0.85663  0.43273  1.0000
  O   O1869     1.0  0.37083  0.85810  0.43360  1.0000
  O   O1870     1.0  0.37083  0.97523  0.43360  1.0000
  O   O1871     1.0  0.53750  0.97523  0.39973  1.0000
  O   O1872     1.0  0.62917  0.80857  0.56640  1.0000
  O   O1873     1.0  0.53750  0.85810  0.39973  1.0000
  O   O1874     1.0  0.36683  0.87887  0.37503  1.0000
  O   O1875     1.0  0.36683  0.95447  0.37503  1.0000
  O   O1876     1.0  0.53350  0.95447  0.45830  1.0000
  O   O1877     1.0  0.63317  0.78780  0.62497  1.0000
  O   O1878     1.0  0.53350  0.87887  0.45830  1.0000
  O   O1879     1.0  0.36760  0.83447  0.37753  1.0000
  O   O1880     1.0  0.46573  0.83220  0.54420  1.0000
  O   O1881     1.0  0.36760  0.99887  0.37753  1.0000
  O   O1882     1.0  0.53427  0.99887  0.45580  1.0000
  O   O1883     1.0  0.63240  0.83220  0.62247  1.0000
  O   O1884     1.0  0.53427  0.83447  0.45580  1.0000
  O   O1885     1.0  0.39033  0.84617  0.49073  1.0000
  O   O1886     1.0  0.39033  0.98717  0.49073  1.0000
  O   O1887     1.0  0.55700  0.98717  0.34260  1.0000
  O   O1888     1.0  0.60967  0.82050  0.50927  1.0000
  O   O1889     1.0  0.55700  0.84617  0.34260  1.0000
  O   O1890     1.0  0.44323  0.98517  0.60517  1.0000
  O   O1891     1.0  0.39010  0.81850  0.43850  1.0000
  O   O1892     1.0  0.44323  0.84817  0.60517  1.0000
  O   O1893     1.0  0.60990  0.84817  0.56150  1.0000
  O   O1894     1.0  0.55677  0.81850  0.39483  1.0000
  O   O1895     1.0  0.60990  0.98517  0.56150  1.0000
  O   O1896     1.0  0.41430  0.85543  0.43687  1.0000
  O   O1897     1.0  0.41430  0.97790  0.43687  1.0000
  O   O1898     1.0  0.58097  0.97790  0.39647  1.0000
  O   O1899     1.0  0.58570  0.81123  0.56313  1.0000
  O   O1900     1.0  0.58097  0.85543  0.39647  1.0000
  O   O1901     1.0  0.40300  0.87653  0.53533  1.0000
  O   O1902     1.0  0.40300  0.95680  0.53533  1.0000
  O   O1903     1.0  0.56967  0.95680  0.63133  1.0000
  O   O1904     1.0  0.56967  0.87653  0.63133  1.0000
  O   O1905     1.0  0.43220  0.84850  0.50917  1.0000
  O   O1906     1.0  0.40113  0.81817  0.34250  1.0000
  O   O1907     1.0  0.43220  0.98483  0.50917  1.0000
  O   O1908     1.0  0.59887  0.98483  0.65750  1.0000
  O   O1909     1.0  0.59887  0.84850  0.65750  1.0000
  O   O1910     1.0  0.40213  0.83367  0.55213  1.0000
  O   O1911     1.0  0.43120  0.83300  0.38547  1.0000
  O   O1912     1.0  0.40213  0.99967  0.55213  1.0000
  O   O1913     1.0  0.56880  0.99967  0.61453  1.0000
  O   O1914     1.0  0.59787  0.83300  0.44787  1.0000
  O   O1915     1.0  0.56880  0.83367  0.61453  1.0000
  O   O1916     1.0  0.46417  0.87550  0.52943  1.0000
  O   O1917     1.0  0.36917  0.79117  0.36277  1.0000
  O   O1918     1.0  0.46417  0.95783  0.52943  1.0000
  O   O1919     1.0  0.63083  0.95783  0.63723  1.0000
  O   O1920     1.0  0.63083  0.87550  0.63723  1.0000
  O   O1921     1.0  0.47180  0.84567  0.48143  1.0000
  O   O1922     1.0  0.36153  0.82100  0.64810  1.0000
  O   O1923     1.0  0.47180  0.98767  0.48143  1.0000
  O   O1924     1.0  0.63847  0.98767  0.35190  1.0000
  O   O1925     1.0  0.63847  0.84567  0.35190  1.0000
  O   O1926     1.0  0.45663  0.85937  0.42233  1.0000
  O   O1927     1.0  0.37670  0.80730  0.58900  1.0000
  O   O1928     1.0  0.45663  0.97397  0.42233  1.0000
  O   O1929     1.0  0.62330  0.97397  0.41100  1.0000
  O   O1930     1.0  0.62330  0.85937  0.41100  1.0000
  O   O1931     1.0  0.35760  0.98630  0.59440  1.0000
  O   O1932     1.0  0.47573  0.81963  0.42773  1.0000
  O   O1933     1.0  0.35760  0.84703  0.59440  1.0000
  O   O1934     1.0  0.52427  0.84703  0.57227  1.0000
  O   O1935     1.0  0.64240  0.81963  0.40560  1.0000
  O   O1936     1.0  0.52427  0.98630  0.57227  1.0000
  O   O1937     1.0  0.42663  0.87710  0.38187  1.0000
  O   O1938     1.0  0.42663  0.95623  0.38187  1.0000
  O   O1939     1.0  0.59330  0.95623  0.45147  1.0000
  O   O1940     1.0  0.59330  0.87710  0.45147  1.0000
  O   O1941     1.0  0.49703  0.95160  0.57230  1.0000
  O   O1942     1.0  0.33630  0.78493  0.40563  1.0000
  O   O1943     1.0  0.49703  0.88173  0.57230  1.0000
  O   O1944     1.0  0.66370  0.88173  0.59437  1.0000
  O   O1945     1.0  0.66370  0.95160  0.59437  1.0000
  O   O1946     1.0  0.45603  0.94370  0.59143  1.0000
  O   O1947     1.0  0.45603  0.88963  0.59143  1.0000
  O   O1948     1.0  0.62270  0.88963  0.57523  1.0000
  O   O1949     1.0  0.62270  0.94370  0.57523  1.0000
  O   O1950     1.0  0.47543  0.91667  0.54770  1.0000
  O   O1951     1.0  0.64210  0.91667  0.61897  1.0000
  O   O1952     1.0  0.44057  0.95370  0.65203  1.0000
  O   O1953     1.0  0.44057  0.87963  0.65203  1.0000
  O   O1954     1.0  0.60723  0.87963  0.51463  1.0000
  O   O1955     1.0  0.60723  0.95370  0.51463  1.0000
  O   O1956     1.0  0.41367  0.95273  0.59967  1.0000
  O   O1957     1.0  0.41367  0.88060  0.59967  1.0000
  O   O1958     1.0  0.58033  0.88060  0.56700  1.0000
  O   O1959     1.0  0.58033  0.95273  0.56700  1.0000
  O   O1960     1.0  0.43143  0.91667  0.35263  1.0000
  O   O1961     1.0  0.59810  0.91667  0.48070  1.0000
  O   O1962     1.0  0.39920  0.94377  0.33343  1.0000
  O   O1963     1.0  0.39920  0.88957  0.33343  1.0000
  O   O1964     1.0  0.56587  0.88957  0.49990  1.0000
  O   O1965     1.0  0.56587  0.94377  0.49990  1.0000
  O   O1966     1.0  0.36493  0.91667  0.34017  1.0000
  O   O1967     1.0  0.53160  0.91667  0.49317  1.0000
  O   O1968     1.0  0.36030  0.95567  0.64250  1.0000
  O   O1969     1.0  0.36030  0.87767  0.64250  1.0000
  O   O1970     1.0  0.52697  0.87767  0.52417  1.0000
  O   O1971     1.0  0.52697  0.95567  0.52417  1.0000
  O   O1972     1.0  0.37257  0.94567  0.58020  1.0000
  O   O1973     1.0  0.37257  0.88767  0.58020  1.0000
  O   O1974     1.0  0.53923  0.88767  0.58647  1.0000
  O   O1975     1.0  0.53923  0.94567  0.58647  1.0000
  O   O1976     1.0  0.40387  0.91667  0.56377  1.0000
  O   O1977     1.0  0.57053  0.91667  0.60290  1.0000
  Si  Si877     1.0  0.35953  0.85703  0.39660  1.0000
  Si  Si878     1.0  0.35953  0.97630  0.39660  1.0000
  Si  Si879     1.0  0.52620  0.97630  0.43673  1.0000
  Si  Si880     1.0  0.64047  0.80963  0.60340  1.0000
  Si  Si881     1.0  0.52620  0.85703  0.43673  1.0000
  Si  Si882     1.0  0.39137  0.84453  0.45000  1.0000
  Si  Si883     1.0  0.39137  0.98880  0.45000  1.0000
  Si  Si884     1.0  0.55803  0.98880  0.38333  1.0000
  Si  Si885     1.0  0.60863  0.82213  0.55000  1.0000
  Si  Si886     1.0  0.55803  0.84453  0.38333  1.0000
  Si  Si887     1.0  0.40693  0.85120  0.52183  1.0000
  Si  Si888     1.0  0.40693  0.98213  0.52183  1.0000
  Si  Si889     1.0  0.57360  0.98213  0.64483  1.0000
  Si  Si890     1.0  0.57360  0.85120  0.64483  1.0000
  Si  Si891     1.0  0.45847  0.85047  0.51603  1.0000
  Si  Si892     1.0  0.37487  0.81620  0.34937  1.0000
  Si  Si893     1.0  0.45847  0.98287  0.51603  1.0000
  Si  Si894     1.0  0.62513  0.98287  0.65063  1.0000
  Si  Si895     1.0  0.62513  0.85047  0.65063  1.0000
  Si  Si896     1.0  0.47597  0.84533  0.44110  1.0000
  Si  Si897     1.0  0.35737  0.82133  0.60777  1.0000
  Si  Si898     1.0  0.47597  0.98800  0.44110  1.0000
  Si  Si899     1.0  0.64263  0.98800  0.39223  1.0000
  Si  Si900     1.0  0.64263  0.84533  0.39223  1.0000
  Si  Si901     1.0  0.43220  0.85623  0.40657  1.0000
  Si  Si902     1.0  0.43220  0.97710  0.40657  1.0000
  Si  Si903     1.0  0.59887  0.97710  0.42677  1.0000
  Si  Si904     1.0  0.59887  0.85623  0.42677  1.0000
  Si  Si905     1.0  0.47317  0.94247  0.56017  1.0000
  Si  Si906     1.0  0.47317  0.89087  0.56017  1.0000
  Si  Si907     1.0  0.63983  0.89087  0.60650  1.0000
  Si  Si908     1.0  0.63983  0.94247  0.60650  1.0000
  Si  Si909     1.0  0.43840  0.95883  0.61203  1.0000
  Si  Si910     1.0  0.43840  0.87450  0.61203  1.0000
  Si  Si911     1.0  0.60507  0.87450  0.55463  1.0000
  Si  Si912     1.0  0.60507  0.95883  0.55463  1.0000
  Si  Si913     1.0  0.42443  0.94260  0.34673  1.0000
  Si  Si914     1.0  0.42443  0.89073  0.34673  1.0000
  Si  Si915     1.0  0.59110  0.89073  0.48660  1.0000
  Si  Si916     1.0  0.59110  0.94260  0.48660  1.0000
  Si  Si917     1.0  0.37283  0.94263  0.33943  1.0000
  Si  Si918     1.0  0.37283  0.89070  0.33943  1.0000
  Si  Si919     1.0  0.53950  0.89070  0.49390  1.0000
  Si  Si920     1.0  0.53950  0.94263  0.49390  1.0000
  Si  Si921     1.0  0.35523  0.95980  0.60290  1.0000
  Si  Si922     1.0  0.35523  0.87353  0.60290  1.0000
  Si  Si923     1.0  0.52190  0.87353  0.56377  1.0000
  Si  Si924     1.0  0.52190  0.95980  0.56377  1.0000
  Si  Si925     1.0  0.39823  0.94293  0.56973  1.0000
  Si  Si926     1.0  0.39823  0.89040  0.56973  1.0000
  Si  Si927     1.0  0.56490  0.89040  0.59693  1.0000
  Si  Si928     1.0  0.56490  0.94293  0.59693  1.0000
  O   O1978     1.0  0.66627  0.85663  0.73393  1.0000
  O   O1979     1.0  0.66627  0.97670  0.73393  1.0000
  O   O1980     1.0  0.49960  0.97670  0.76607  1.0000
  O   O1981     1.0  0.33373  0.81003  0.93273  1.0000
  O   O1982     1.0  0.49960  0.85663  0.76607  1.0000
  O   O1983     1.0  0.37083  0.85810  0.76693  1.0000
  O   O1984     1.0  0.37083  0.97523  0.76693  1.0000
  O   O1985     1.0  0.53750  0.97523  0.73307  1.0000
  O   O1986     1.0  0.62917  0.80857  0.89973  1.0000
  O   O1987     1.0  0.53750  0.85810  0.73307  1.0000
  O   O1988     1.0  0.36683  0.87887  0.70837  1.0000
  O   O1989     1.0  0.36683  0.95447  0.70837  1.0000
  O   O1990     1.0  0.53350  0.95447  0.79163  1.0000
  O   O1991     1.0  0.63317  0.78780  0.95830  1.0000
  O   O1992     1.0  0.53350  0.87887  0.79163  1.0000
  O   O1993     1.0  0.36760  0.83447  0.71087  1.0000
  O   O1994     1.0  0.46573  0.83220  0.87753  1.0000
  O   O1995     1.0  0.36760  0.99887  0.71087  1.0000
  O   O1996     1.0  0.53427  0.99887  0.78913  1.0000
  O   O1997     1.0  0.63240  0.83220  0.95580  1.0000
  O   O1998     1.0  0.53427  0.83447  0.78913  1.0000
  O   O1999     1.0  0.39033  0.84617  0.82407  1.0000
  O   O2000     1.0  0.39033  0.98717  0.82407  1.0000
  O   O2001     1.0  0.55700  0.98717  0.67593  1.0000
  O   O2002     1.0  0.60967  0.82050  0.84260  1.0000
  O   O2003     1.0  0.55700  0.84617  0.67593  1.0000
  O   O2004     1.0  0.44323  0.98517  0.93850  1.0000
  O   O2005     1.0  0.39010  0.81850  0.77183  1.0000
  O   O2006     1.0  0.44323  0.84817  0.93850  1.0000
  O   O2007     1.0  0.60990  0.84817  0.89483  1.0000
  O   O2008     1.0  0.55677  0.81850  0.72817  1.0000
  O   O2009     1.0  0.60990  0.98517  0.89483  1.0000
  O   O2010     1.0  0.41430  0.85543  0.77020  1.0000
  O   O2011     1.0  0.41430  0.97790  0.77020  1.0000
  O   O2012     1.0  0.58097  0.97790  0.72980  1.0000
  O   O2013     1.0  0.58570  0.81123  0.89647  1.0000
  O   O2014     1.0  0.58097  0.85543  0.72980  1.0000
  O   O2015     1.0  0.40300  0.87653  0.86867  1.0000
  O   O2016     1.0  0.40300  0.95680  0.86867  1.0000
  O   O2017     1.0  0.56967  0.95680  0.96467  1.0000
  O   O2018     1.0  0.56967  0.87653  0.96467  1.0000
  O   O2019     1.0  0.43220  0.84850  0.84250  1.0000
  O   O2020     1.0  0.40113  0.81817  0.67583  1.0000
  O   O2021     1.0  0.43220  0.98483  0.84250  1.0000
  O   O2022     1.0  0.59887  0.98483  0.99083  1.0000
  O   O2023     1.0  0.59887  0.84850  0.99083  1.0000
  O   O2024     1.0  0.40213  0.83367  0.88547  1.0000
  O   O2025     1.0  0.43120  0.83300  0.71880  1.0000
  O   O2026     1.0  0.40213  0.99967  0.88547  1.0000
  O   O2027     1.0  0.56880  0.99967  0.94787  1.0000
  O   O2028     1.0  0.59787  0.83300  0.78120  1.0000
  O   O2029     1.0  0.56880  0.83367  0.94787  1.0000
  O   O2030     1.0  0.46417  0.87550  0.86277  1.0000
  O   O2031     1.0  0.36917  0.79117  0.69610  1.0000
  O   O2032     1.0  0.46417  0.95783  0.86277  1.0000
  O   O2033     1.0  0.63083  0.95783  0.97057  1.0000
  O   O2034     1.0  0.63083  0.87550  0.97057  1.0000
  O   O2035     1.0  0.47180  0.84567  0.81477  1.0000
  O   O2036     1.0  0.36153  0.82100  0.98143  1.0000
  O   O2037     1.0  0.47180  0.98767  0.81477  1.0000
  O   O2038     1.0  0.63847  0.98767  0.68523  1.0000
  O   O2039     1.0  0.63847  0.84567  0.68523  1.0000
  O   O2040     1.0  0.45663  0.85937  0.75567  1.0000
  O   O2041     1.0  0.37670  0.80730  0.92233  1.0000
  O   O2042     1.0  0.45663  0.97397  0.75567  1.0000
  O   O2043     1.0  0.62330  0.97397  0.74433  1.0000
  O   O2044     1.0  0.62330  0.85937  0.74433  1.0000
  O   O2045     1.0  0.35760  0.98630  0.92773  1.0000
  O   O2046     1.0  0.47573  0.81963  0.76107  1.0000
  O   O2047     1.0  0.35760  0.84703  0.92773  1.0000
  O   O2048     1.0  0.52427  0.84703  0.90560  1.0000
  O   O2049     1.0  0.64240  0.81963  0.73893  1.0000
  O   O2050     1.0  0.52427  0.98630  0.90560  1.0000
  O   O2051     1.0  0.42663  0.87710  0.71520  1.0000
  O   O2052     1.0  0.42663  0.95623  0.71520  1.0000
  O   O2053     1.0  0.59330  0.95623  0.78480  1.0000
  O   O2054     1.0  0.59330  0.87710  0.78480  1.0000
  O   O2055     1.0  0.49703  0.95160  0.90563  1.0000
  O   O2056     1.0  0.33630  0.78493  0.73897  1.0000
  O   O2057     1.0  0.49703  0.88173  0.90563  1.0000
  O   O2058     1.0  0.66370  0.88173  0.92770  1.0000
  O   O2059     1.0  0.66370  0.95160  0.92770  1.0000
  O   O2060     1.0  0.45603  0.94370  0.92477  1.0000
  O   O2061     1.0  0.45603  0.88963  0.92477  1.0000
  O   O2062     1.0  0.62270  0.88963  0.90857  1.0000
  O   O2063     1.0  0.62270  0.94370  0.90857  1.0000
  O   O2064     1.0  0.47543  0.91667  0.88103  1.0000
  O   O2065     1.0  0.64210  0.91667  0.95230  1.0000
  O   O2066     1.0  0.44057  0.95370  0.98537  1.0000
  O   O2067     1.0  0.44057  0.87963  0.98537  1.0000
  O   O2068     1.0  0.60723  0.87963  0.84797  1.0000
  O   O2069     1.0  0.60723  0.95370  0.84797  1.0000
  O   O2070     1.0  0.41367  0.95273  0.93300  1.0000
  O   O2071     1.0  0.41367  0.88060  0.93300  1.0000
  O   O2072     1.0  0.58033  0.88060  0.90033  1.0000
  O   O2073     1.0  0.58033  0.95273  0.90033  1.0000
  O   O2074     1.0  0.43143  0.91667  0.68597  1.0000
  O   O2075     1.0  0.59810  0.91667  0.81403  1.0000
  O   O2076     1.0  0.39920  0.94377  0.66677  1.0000
  O   O2077     1.0  0.39920  0.88957  0.66677  1.0000
  O   O2078     1.0  0.56587  0.88957  0.83323  1.0000
  O   O2079     1.0  0.56587  0.94377  0.83323  1.0000
  O   O2080     1.0  0.36493  0.91667  0.67350  1.0000
  O   O2081     1.0  0.53160  0.91667  0.82650  1.0000
  O   O2082     1.0  0.36030  0.95567  0.97583  1.0000
  O   O2083     1.0  0.36030  0.87767  0.97583  1.0000
  O   O2084     1.0  0.52697  0.87767  0.85750  1.0000
  O   O2085     1.0  0.52697  0.95567  0.85750  1.0000
  O   O2086     1.0  0.37257  0.94567  0.91353  1.0000
  O   O2087     1.0  0.37257  0.88767  0.91353  1.0000
  O   O2088     1.0  0.53923  0.88767  0.91980  1.0000
  O   O2089     1.0  0.53923  0.94567  0.91980  1.0000
  O   O2090     1.0  0.40387  0.91667  0.89710  1.0000
  O   O2091     1.0  0.57053  0.91667  0.93623  1.0000
  Si  Si929     1.0  0.35953  0.85703  0.72993  1.0000
  Si  Si930     1.0  0.35953  0.97630  0.72993  1.0000
  Si  Si931     1.0  0.52620  0.97630  0.77007  1.0000
  Si  Si932     1.0  0.64047  0.80963  0.93673  1.0000
  Si  Si933     1.0  0.52620  0.85703  0.77007  1.0000
  Al  Al17      1.0  0.39137  0.84453  0.78333  1.0000
  Si  Si934     1.0  0.39137  0.98880  0.78333  1.0000
  Si  Si935     1.0  0.55803  0.98880  0.71667  1.0000
  Si  Si936     1.0  0.60863  0.82213  0.88333  1.0000
  Si  Si937     1.0  0.55803  0.84453  0.71667  1.0000
  Si  Si938     1.0  0.40693  0.85120  0.85517  1.0000
  Si  Si939     1.0  0.40693  0.98213  0.85517  1.0000
  Si  Si940     1.0  0.57360  0.98213  0.97817  1.0000
  Si  Si941     1.0  0.57360  0.85120  0.97817  1.0000
  Si  Si942     1.0  0.45847  0.85047  0.84937  1.0000
  Si  Si943     1.0  0.37487  0.81620  0.68270  1.0000
  Si  Si944     1.0  0.45847  0.98287  0.84937  1.0000
  Si  Si945     1.0  0.62513  0.98287  0.98397  1.0000
  Si  Si946     1.0  0.62513  0.85047  0.98397  1.0000
  Si  Si947     1.0  0.47597  0.84533  0.77443  1.0000
  Si  Si948     1.0  0.35737  0.82133  0.94110  1.0000
  Si  Si949     1.0  0.47597  0.98800  0.77443  1.0000
  Si  Si950     1.0  0.64263  0.98800  0.72557  1.0000
  Si  Si951     1.0  0.64263  0.84533  0.72557  1.0000
  Si  Si952     1.0  0.43220  0.85623  0.73990  1.0000
  Si  Si953     1.0  0.43220  0.97710  0.73990  1.0000
  Si  Si954     1.0  0.59887  0.97710  0.76010  1.0000
  Al  Al18      1.0  0.59887  0.85623  0.76010  1.0000
  Si  Si955     1.0  0.47317  0.94247  0.89350  1.0000
  Si  Si956     1.0  0.47317  0.89087  0.89350  1.0000
  Si  Si957     1.0  0.63983  0.89087  0.93983  1.0000
  Si  Si958     1.0  0.63983  0.94247  0.93983  1.0000
  Si  Si959     1.0  0.43840  0.95883  0.94537  1.0000
  Si  Si960     1.0  0.43840  0.87450  0.94537  1.0000
  Si  Si961     1.0  0.60507  0.87450  0.88797  1.0000
  Si  Si962     1.0  0.60507  0.95883  0.88797  1.0000
  Si  Si963     1.0  0.42443  0.94260  0.68007  1.0000
  Si  Si964     1.0  0.42443  0.89073  0.68007  1.0000
  Si  Si965     1.0  0.59110  0.89073  0.81993  1.0000
  Si  Si966     1.0  0.59110  0.94260  0.81993  1.0000
  Si  Si967     1.0  0.37283  0.94263  0.67277  1.0000
  Si  Si968     1.0  0.37283  0.89070  0.67277  1.0000
  Si  Si969     1.0  0.53950  0.89070  0.82723  1.0000
  Si  Si970     1.0  0.53950  0.94263  0.82723  1.0000
  Si  Si971     1.0  0.35523  0.95980  0.93623  1.0000
  Si  Si972     1.0  0.35523  0.87353  0.93623  1.0000
  Si  Si973     1.0  0.52190  0.87353  0.89710  1.0000
  Si  Si974     1.0  0.52190  0.95980  0.89710  1.0000
  Si  Si975     1.0  0.39823  0.94293  0.90307  1.0000
  Si  Si976     1.0  0.39823  0.89040  0.90307  1.0000
  Si  Si977     1.0  0.56490  0.89040  0.93027  1.0000
  Si  Si978     1.0  0.56490  0.94293  0.93027  1.0000
  O   O2092     1.0  0.83373  0.02330  0.23393  1.0000
  O   O2093     1.0  0.99960  0.18997  0.06727  1.0000
  O   O2094     1.0  0.83373  0.14337  0.23393  1.0000
  O   O2095     1.0  0.99960  0.31003  0.06727  1.0000
  O   O2096     1.0  0.83293  0.31003  0.09940  1.0000
  O   O2097     1.0  0.66707  0.14337  0.26607  1.0000
  O   O2098     1.0  0.83293  0.18997  0.09940  1.0000
  O   O2099     1.0  0.66707  0.02330  0.26607  1.0000
  O   O2100     1.0  0.79583  0.02477  0.26693  1.0000
  O   O2101     1.0  0.70417  0.19143  0.10027  1.0000
  O   O2102     1.0  0.79583  0.14190  0.26693  1.0000
  O   O2103     1.0  0.87083  0.30857  0.06640  1.0000
  O   O2104     1.0  0.96250  0.14190  0.23307  1.0000
  O   O2105     1.0  0.87083  0.19143  0.06640  1.0000
  O   O2106     1.0  0.96250  0.02477  0.23307  1.0000
  O   O2107     1.0  0.79983  0.04553  0.20837  1.0000
  O   O2108     1.0  0.70017  0.21220  0.04170  1.0000
  O   O2109     1.0  0.79983  0.12113  0.20837  1.0000
  O   O2110     1.0  0.86683  0.28780  0.12497  1.0000
  O   O2111     1.0  0.96650  0.12113  0.29163  1.0000
  O   O2112     1.0  0.86683  0.21220  0.12497  1.0000
  O   O2113     1.0  0.96650  0.04553  0.29163  1.0000
  O   O2114     1.0  0.79907  0.00113  0.21087  1.0000
  O   O2115     1.0  0.70093  0.16780  0.04420  1.0000
  O   O2116     1.0  0.79907  0.16553  0.21087  1.0000
  O   O2117     1.0  0.86760  0.33220  0.12247  1.0000
  O   O2118     1.0  0.96573  0.16553  0.28913  1.0000
  O   O2119     1.0  0.86760  0.16780  0.12247  1.0000
  O   O2120     1.0  0.96573  0.00113  0.28913  1.0000
  O   O2121     1.0  0.77633  0.01283  0.32407  1.0000
  O   O2122     1.0  0.72367  0.17950  0.15740  1.0000
  O   O2123     1.0  0.77633  0.15383  0.32407  1.0000
  O   O2124     1.0  0.89033  0.32050  0.00927  1.0000
  O   O2125     1.0  0.94300  0.15383  0.17593  1.0000
  O   O2126     1.0  0.89033  0.17950  0.00927  1.0000
  O   O2127     1.0  0.94300  0.01283  0.17593  1.0000
  O   O2128     1.0  0.77657  0.31850  0.27183  1.0000
  O   O2129     1.0  0.72343  0.15183  0.10517  1.0000
  O   O2130     1.0  0.77657  0.18150  0.27183  1.0000
  O   O2131     1.0  0.72343  0.01483  0.10517  1.0000
  O   O2132     1.0  0.89010  0.01483  0.06150  1.0000
  O   O2133     1.0  0.94323  0.18150  0.22817  1.0000
  O   O2134     1.0  0.89010  0.15183  0.06150  1.0000
  O   O2135     1.0  0.94323  0.31850  0.22817  1.0000
  O   O2136     1.0  0.75237  0.02210  0.27020  1.0000
  O   O2137     1.0  0.74763  0.18877  0.10353  1.0000
  O   O2138     1.0  0.75237  0.14457  0.27020  1.0000
  O   O2139     1.0  0.91430  0.31123  0.06313  1.0000
  O   O2140     1.0  0.91903  0.14457  0.22980  1.0000
  O   O2141     1.0  0.91430  0.18877  0.06313  1.0000
  O   O2142     1.0  0.91903  0.02210  0.22980  1.0000
  O   O2143     1.0  0.76367  0.04320  0.03533  1.0000
  O   O2144     1.0  0.73633  0.20987  0.20200  1.0000
  O   O2145     1.0  0.76367  0.12347  0.03533  1.0000
  O   O2146     1.0  0.90300  0.29013  0.29800  1.0000
  O   O2147     1.0  0.93033  0.12347  0.13133  1.0000
  O   O2148     1.0  0.90300  0.20987  0.29800  1.0000
  O   O2149     1.0  0.93033  0.04320  0.13133  1.0000
  O   O2150     1.0  0.73447  0.01517  0.00917  1.0000
  O   O2151     1.0  0.76553  0.18183  0.17583  1.0000
  O   O2152     1.0  0.73447  0.15150  0.00917  1.0000
  O   O2153     1.0  0.76553  0.31817  0.17583  1.0000
  O   O2154     1.0  0.93220  0.31817  0.32417  1.0000
  O   O2155     1.0  0.90113  0.15150  0.15750  1.0000
  O   O2156     1.0  0.93220  0.18183  0.32417  1.0000
  O   O2157     1.0  0.90113  0.01517  0.15750  1.0000
  O   O2158     1.0  0.76453  0.00033  0.05213  1.0000
  O   O2159     1.0  0.73547  0.16700  0.21880  1.0000
  O   O2160     1.0  0.76453  0.16633  0.05213  1.0000
  O   O2161     1.0  0.90213  0.33300  0.28120  1.0000
  O   O2162     1.0  0.93120  0.16633  0.11453  1.0000
  O   O2163     1.0  0.90213  0.16700  0.28120  1.0000
  O   O2164     1.0  0.93120  0.00033  0.11453  1.0000
  O   O2165     1.0  0.70250  0.04217  0.02943  1.0000
  O   O2166     1.0  0.79750  0.20883  0.19610  1.0000
  O   O2167     1.0  0.70250  0.12450  0.02943  1.0000
  O   O2168     1.0  0.79750  0.29117  0.19610  1.0000
  O   O2169     1.0  0.96417  0.29117  0.30390  1.0000
  O   O2170     1.0  0.86917  0.12450  0.13723  1.0000
  O   O2171     1.0  0.96417  0.20883  0.30390  1.0000
  O   O2172     1.0  0.86917  0.04217  0.13723  1.0000
  O   O2173     1.0  0.69487  0.01233  0.31477  1.0000
  O   O2174     1.0  0.80513  0.17900  0.14810  1.0000
  O   O2175     1.0  0.69487  0.15433  0.31477  1.0000
  O   O2176     1.0  0.80513  0.32100  0.14810  1.0000
  O   O2177     1.0  0.97180  0.32100  0.01857  1.0000
  O   O2178     1.0  0.86153  0.15433  0.18523  1.0000
  O   O2179     1.0  0.97180  0.17900  0.01857  1.0000
  O   O2180     1.0  0.86153  0.01233  0.18523  1.0000
  O   O2181     1.0  0.71003  0.02603  0.25567  1.0000
  O   O2182     1.0  0.78997  0.19270  0.08900  1.0000
  O   O2183     1.0  0.71003  0.14063  0.25567  1.0000
  O   O2184     1.0  0.78997  0.30730  0.08900  1.0000
  O   O2185     1.0  0.95663  0.30730  0.07767  1.0000
  O   O2186     1.0  0.87670  0.14063  0.24433  1.0000
  O   O2187     1.0  0.95663  0.19270  0.07767  1.0000
  O   O2188     1.0  0.87670  0.02603  0.24433  1.0000
  O   O2189     1.0  0.80907  0.15297  0.09440  1.0000
  O   O2190     1.0  0.69093  0.18037  0.26107  1.0000
  O   O2191     1.0  0.80907  0.01370  0.09440  1.0000
  O   O2192     1.0  0.97573  0.01370  0.07227  1.0000
  O   O2193     1.0  0.85760  0.18037  0.23893  1.0000
  O   O2194     1.0  0.97573  0.15297  0.07227  1.0000
  O   O2195     1.0  0.85760  0.31963  0.23893  1.0000
  O   O2196     1.0  0.74003  0.04377  0.21520  1.0000
  O   O2197     1.0  0.75997  0.21043  0.04853  1.0000
  O   O2198     1.0  0.74003  0.12290  0.21520  1.0000
  O   O2199     1.0  0.75997  0.28957  0.04853  1.0000
  O   O2200     1.0  0.92663  0.28957  0.11813  1.0000
  O   O2201     1.0  0.90670  0.12290  0.28480  1.0000
  O   O2202     1.0  0.92663  0.21043  0.11813  1.0000
  O   O2203     1.0  0.90670  0.04377  0.28480  1.0000
  O   O2204     1.0  0.83037  0.28493  0.23897  1.0000
  O   O2205     1.0  0.66963  0.11827  0.07230  1.0000
  O   O2206     1.0  0.83037  0.21507  0.23897  1.0000
  O   O2207     1.0  0.66963  0.04840  0.07230  1.0000
  O   O2208     1.0  0.83630  0.04840  0.09437  1.0000
  O   O2209     1.0  0.99703  0.21507  0.26103  1.0000
  O   O2210     1.0  0.83630  0.11827  0.09437  1.0000
  O   O2211     1.0  0.99703  0.28493  0.26103  1.0000
  O   O2212     1.0  0.78937  0.27703  0.25810  1.0000
  O   O2213     1.0  0.71063  0.11037  0.09143  1.0000
  O   O2214     1.0  0.78937  0.22297  0.25810  1.0000
  O   O2215     1.0  0.71063  0.05630  0.09143  1.0000
  O   O2216     1.0  0.87730  0.05630  0.07523  1.0000
  O   O2217     1.0  0.95603  0.22297  0.24190  1.0000
  O   O2218     1.0  0.87730  0.11037  0.07523  1.0000
  O   O2219     1.0  0.95603  0.27703  0.24190  1.0000
  O   O2220     1.0  0.80877  0.25000  0.21437  1.0000
  O   O2221     1.0  0.69123  0.08333  0.04770  1.0000
  O   O2222     1.0  0.85790  0.08333  0.11897  1.0000
  O   O2223     1.0  0.97543  0.25000  0.28563  1.0000
  O   O2224     1.0  0.77390  0.28703  0.31870  1.0000
  O   O2225     1.0  0.72610  0.12037  0.15203  1.0000
  O   O2226     1.0  0.77390  0.21297  0.31870  1.0000
  O   O2227     1.0  0.72610  0.04630  0.15203  1.0000
  O   O2228     1.0  0.89277  0.04630  0.01463  1.0000
  O   O2229     1.0  0.94057  0.21297  0.18130  1.0000
  O   O2230     1.0  0.89277  0.12037  0.01463  1.0000
  O   O2231     1.0  0.94057  0.28703  0.18130  1.0000
  O   O2232     1.0  0.74700  0.28607  0.26633  1.0000
  O   O2233     1.0  0.75300  0.11940  0.09967  1.0000
  O   O2234     1.0  0.74700  0.21393  0.26633  1.0000
  O   O2235     1.0  0.75300  0.04727  0.09967  1.0000
  O   O2236     1.0  0.91967  0.04727  0.06700  1.0000
  O   O2237     1.0  0.91367  0.21393  0.23367  1.0000
  O   O2238     1.0  0.91967  0.11940  0.06700  1.0000
  O   O2239     1.0  0.91367  0.28607  0.23367  1.0000
  O   O2240     1.0  0.76477  0.25000  0.01930  1.0000
  O   O2241     1.0  0.73523  0.08333  0.18597  1.0000
  O   O2242     1.0  0.90190  0.08333  0.31403  1.0000
  O   O2243     1.0  0.93143  0.25000  0.14737  1.0000
  O   O2244     1.0  0.73253  0.27710  0.00010  1.0000
  O   O2245     1.0  0.76747  0.11043  0.16677  1.0000
  O   O2246     1.0  0.73253  0.22290  0.00010  1.0000
  O   O2247     1.0  0.76747  0.05623  0.16677  1.0000
  O   O2248     1.0  0.93413  0.05623  0.33323  1.0000
  O   O2249     1.0  0.89920  0.22290  0.16657  1.0000
  O   O2250     1.0  0.93413  0.11043  0.33323  1.0000
  O   O2251     1.0  0.89920  0.27710  0.16657  1.0000
  O   O2252     1.0  0.69827  0.25000  0.00683  1.0000
  O   O2253     1.0  0.80173  0.08333  0.17350  1.0000
  O   O2254     1.0  0.96840  0.08333  0.32650  1.0000
  O   O2255     1.0  0.86493  0.25000  0.15983  1.0000
  O   O2256     1.0  0.80637  0.12233  0.14250  1.0000
  O   O2257     1.0  0.69363  0.21100  0.30917  1.0000
  O   O2258     1.0  0.80637  0.04433  0.14250  1.0000
  O   O2259     1.0  0.97303  0.04433  0.02417  1.0000
  O   O2260     1.0  0.86030  0.21100  0.19083  1.0000
  O   O2261     1.0  0.97303  0.12233  0.02417  1.0000
  O   O2262     1.0  0.86030  0.28900  0.19083  1.0000
  O   O2263     1.0  0.79410  0.11233  0.08020  1.0000
  O   O2264     1.0  0.70590  0.22100  0.24687  1.0000
  O   O2265     1.0  0.79410  0.05433  0.08020  1.0000
  O   O2266     1.0  0.96077  0.05433  0.08647  1.0000
  O   O2267     1.0  0.87257  0.22100  0.25313  1.0000
  O   O2268     1.0  0.96077  0.11233  0.08647  1.0000
  O   O2269     1.0  0.87257  0.27900  0.25313  1.0000
  O   O2270     1.0  0.73720  0.25000  0.23043  1.0000
  O   O2271     1.0  0.76280  0.08333  0.06377  1.0000
  O   O2272     1.0  0.92947  0.08333  0.10290  1.0000
  O   O2273     1.0  0.90387  0.25000  0.26957  1.0000
  Si  Si979     1.0  0.80713  0.02370  0.22993  1.0000
  Si  Si980     1.0  0.69287  0.19037  0.06327  1.0000
  Si  Si981     1.0  0.80713  0.14297  0.22993  1.0000
  Si  Si982     1.0  0.85953  0.30963  0.10340  1.0000
  Si  Si983     1.0  0.97380  0.14297  0.27007  1.0000
  Si  Si984     1.0  0.85953  0.19037  0.10340  1.0000
  Si  Si985     1.0  0.97380  0.02370  0.27007  1.0000
  Si  Si986     1.0  0.77530  0.01120  0.28333  1.0000
  Si  Si987     1.0  0.72470  0.17787  0.11667  1.0000
  Si  Si988     1.0  0.77530  0.15547  0.28333  1.0000
  Si  Si989     1.0  0.89137  0.32213  0.05000  1.0000
  Si  Si990     1.0  0.94197  0.15547  0.21667  1.0000
  Si  Si991     1.0  0.89137  0.17787  0.05000  1.0000
  Si  Si992     1.0  0.94197  0.01120  0.21667  1.0000
  Si  Si993     1.0  0.75973  0.01787  0.02183  1.0000
  Si  Si994     1.0  0.74027  0.18453  0.18850  1.0000
  Si  Si995     1.0  0.75973  0.14880  0.02183  1.0000
  Si  Si996     1.0  0.90693  0.31547  0.31150  1.0000
  Si  Si997     1.0  0.92640  0.14880  0.14483  1.0000
  Si  Si998     1.0  0.90693  0.18453  0.31150  1.0000
  Si  Si999     1.0  0.92640  0.01787  0.14483  1.0000
  Si  Si1000    1.0  0.70820  0.01713  0.01603  1.0000
  Si  Si1001    1.0  0.79180  0.18380  0.18270  1.0000
  Si  Si1002    1.0  0.70820  0.14953  0.01603  1.0000
  Si  Si1003    1.0  0.79180  0.31620  0.18270  1.0000
  Si  Si1004    1.0  0.95847  0.31620  0.31730  1.0000
  Si  Si1005    1.0  0.87487  0.14953  0.15063  1.0000
  Si  Si1006    1.0  0.95847  0.18380  0.31730  1.0000
  Si  Si1007    1.0  0.87487  0.01713  0.15063  1.0000
  Si  Si1008    1.0  0.69070  0.01200  0.27443  1.0000
  Si  Si1009    1.0  0.80930  0.17867  0.10777  1.0000
  Si  Si1010    1.0  0.69070  0.15467  0.27443  1.0000
  Si  Si1011    1.0  0.80930  0.32133  0.10777  1.0000
  Si  Si1012    1.0  0.97597  0.32133  0.05890  1.0000
  Si  Si1013    1.0  0.85737  0.15467  0.22557  1.0000
  Si  Si1014    1.0  0.97597  0.17867  0.05890  1.0000
  Si  Si1015    1.0  0.85737  0.01200  0.22557  1.0000
  Si  Si1016    1.0  0.73447  0.02290  0.23990  1.0000
  Si  Si1017    1.0  0.76553  0.18957  0.07323  1.0000
  Al  Al19      1.0  0.73447  0.14377  0.23990  1.0000
  Si  Si1018    1.0  0.93220  0.31043  0.09343  1.0000
  Si  Si1019    1.0  0.90113  0.14377  0.26010  1.0000
  Si  Si1020    1.0  0.93220  0.18957  0.09343  1.0000
  Si  Si1021    1.0  0.90113  0.02290  0.26010  1.0000
  Si  Si1022    1.0  0.80650  0.27580  0.22683  1.0000
  Si  Si1023    1.0  0.69350  0.10913  0.06017  1.0000
  Si  Si1024    1.0  0.80650  0.22420  0.22683  1.0000
  Si  Si1025    1.0  0.69350  0.05753  0.06017  1.0000
  Si  Si1026    1.0  0.86017  0.05753  0.10650  1.0000
  Si  Si1027    1.0  0.97317  0.22420  0.27317  1.0000
  Si  Si1028    1.0  0.86017  0.10913  0.10650  1.0000
  Si  Si1029    1.0  0.97317  0.27580  0.27317  1.0000
  Si  Si1030    1.0  0.77173  0.29217  0.27870  1.0000
  Si  Si1031    1.0  0.72827  0.12550  0.11203  1.0000
  Si  Si1032    1.0  0.77173  0.20783  0.27870  1.0000
  Si  Si1033    1.0  0.72827  0.04117  0.11203  1.0000
  Si  Si1034    1.0  0.89493  0.04117  0.05463  1.0000
  Si  Si1035    1.0  0.93840  0.20783  0.22130  1.0000
  Si  Si1036    1.0  0.89493  0.12550  0.05463  1.0000
  Si  Si1037    1.0  0.93840  0.29217  0.22130  1.0000
  Si  Si1038    1.0  0.75777  0.27593  0.01340  1.0000
  Si  Si1039    1.0  0.74223  0.10927  0.18007  1.0000
  Si  Si1040    1.0  0.75777  0.22407  0.01340  1.0000
  Si  Si1041    1.0  0.74223  0.05740  0.18007  1.0000
  Si  Si1042    1.0  0.90890  0.05740  0.31993  1.0000
  Si  Si1043    1.0  0.92443  0.22407  0.15327  1.0000
  Si  Si1044    1.0  0.90890  0.10927  0.31993  1.0000
  Si  Si1045    1.0  0.92443  0.27593  0.15327  1.0000
  Si  Si1046    1.0  0.79383  0.10930  0.17277  1.0000
  Si  Si1047    1.0  0.70617  0.22403  0.00610  1.0000
  Si  Si1048    1.0  0.79383  0.05737  0.17277  1.0000
  Si  Si1049    1.0  0.96050  0.05737  0.32723  1.0000
  Si  Si1050    1.0  0.87283  0.22403  0.16057  1.0000
  Si  Si1051    1.0  0.96050  0.10930  0.32723  1.0000
  Si  Si1052    1.0  0.87283  0.27597  0.16057  1.0000
  Si  Si1053    1.0  0.81143  0.12647  0.10290  1.0000
  Si  Si1054    1.0  0.68857  0.20687  0.26957  1.0000
  Si  Si1055    1.0  0.81143  0.04020  0.10290  1.0000
  Si  Si1056    1.0  0.97810  0.04020  0.06377  1.0000
  Si  Si1057    1.0  0.85523  0.20687  0.23043  1.0000
  Si  Si1058    1.0  0.97810  0.12647  0.06377  1.0000
  Si  Si1059    1.0  0.85523  0.29313  0.23043  1.0000
  Si  Si1060    1.0  0.76843  0.10960  0.06973  1.0000
  Si  Si1061    1.0  0.73157  0.22373  0.23640  1.0000
  Si  Si1062    1.0  0.76843  0.05707  0.06973  1.0000
  Si  Si1063    1.0  0.93510  0.05707  0.09693  1.0000
  Si  Si1064    1.0  0.89823  0.22373  0.26360  1.0000
  Si  Si1065    1.0  0.93510  0.10960  0.09693  1.0000
  Si  Si1066    1.0  0.89823  0.27627  0.26360  1.0000
  O   O2274     1.0  0.83373  0.02330  0.56727  1.0000
  O   O2275     1.0  0.99960  0.18997  0.40060  1.0000
  O   O2276     1.0  0.83373  0.14337  0.56727  1.0000
  O   O2277     1.0  0.99960  0.31003  0.40060  1.0000
  O   O2278     1.0  0.83293  0.31003  0.43273  1.0000
  O   O2279     1.0  0.66707  0.14337  0.59940  1.0000
  O   O2280     1.0  0.83293  0.18997  0.43273  1.0000
  O   O2281     1.0  0.66707  0.02330  0.59940  1.0000
  O   O2282     1.0  0.79583  0.02477  0.60027  1.0000
  O   O2283     1.0  0.70417  0.19143  0.43360  1.0000
  O   O2284     1.0  0.79583  0.14190  0.60027  1.0000
  O   O2285     1.0  0.87083  0.30857  0.39973  1.0000
  O   O2286     1.0  0.96250  0.14190  0.56640  1.0000
  O   O2287     1.0  0.87083  0.19143  0.39973  1.0000
  O   O2288     1.0  0.96250  0.02477  0.56640  1.0000
  O   O2289     1.0  0.79983  0.04553  0.54170  1.0000
  O   O2290     1.0  0.70017  0.21220  0.37503  1.0000
  O   O2291     1.0  0.79983  0.12113  0.54170  1.0000
  O   O2292     1.0  0.86683  0.28780  0.45830  1.0000
  O   O2293     1.0  0.96650  0.12113  0.62497  1.0000
  O   O2294     1.0  0.86683  0.21220  0.45830  1.0000
  O   O2295     1.0  0.96650  0.04553  0.62497  1.0000
  O   O2296     1.0  0.79907  0.00113  0.54420  1.0000
  O   O2297     1.0  0.70093  0.16780  0.37753  1.0000
  O   O2298     1.0  0.79907  0.16553  0.54420  1.0000
  O   O2299     1.0  0.86760  0.33220  0.45580  1.0000
  O   O2300     1.0  0.96573  0.16553  0.62247  1.0000
  O   O2301     1.0  0.86760  0.16780  0.45580  1.0000
  O   O2302     1.0  0.96573  0.00113  0.62247  1.0000
  O   O2303     1.0  0.77633  0.01283  0.65740  1.0000
  O   O2304     1.0  0.72367  0.17950  0.49073  1.0000
  O   O2305     1.0  0.77633  0.15383  0.65740  1.0000
  O   O2306     1.0  0.89033  0.32050  0.34260  1.0000
  O   O2307     1.0  0.94300  0.15383  0.50927  1.0000
  O   O2308     1.0  0.89033  0.17950  0.34260  1.0000
  O   O2309     1.0  0.94300  0.01283  0.50927  1.0000
  O   O2310     1.0  0.77657  0.31850  0.60517  1.0000
  O   O2311     1.0  0.72343  0.15183  0.43850  1.0000
  O   O2312     1.0  0.77657  0.18150  0.60517  1.0000
  O   O2313     1.0  0.72343  0.01483  0.43850  1.0000
  O   O2314     1.0  0.89010  0.01483  0.39483  1.0000
  O   O2315     1.0  0.94323  0.18150  0.56150  1.0000
  O   O2316     1.0  0.89010  0.15183  0.39483  1.0000
  O   O2317     1.0  0.94323  0.31850  0.56150  1.0000
  O   O2318     1.0  0.75237  0.02210  0.60353  1.0000
  O   O2319     1.0  0.74763  0.18877  0.43687  1.0000
  O   O2320     1.0  0.75237  0.14457  0.60353  1.0000
  O   O2321     1.0  0.91430  0.31123  0.39647  1.0000
  O   O2322     1.0  0.91903  0.14457  0.56313  1.0000
  O   O2323     1.0  0.91430  0.18877  0.39647  1.0000
  O   O2324     1.0  0.91903  0.02210  0.56313  1.0000
  O   O2325     1.0  0.76367  0.04320  0.36867  1.0000
  O   O2326     1.0  0.73633  0.20987  0.53533  1.0000
  O   O2327     1.0  0.76367  0.12347  0.36867  1.0000
  O   O2328     1.0  0.90300  0.29013  0.63133  1.0000
  O   O2329     1.0  0.93033  0.12347  0.46467  1.0000
  O   O2330     1.0  0.90300  0.20987  0.63133  1.0000
  O   O2331     1.0  0.93033  0.04320  0.46467  1.0000
  O   O2332     1.0  0.73447  0.01517  0.34250  1.0000
  O   O2333     1.0  0.76553  0.18183  0.50917  1.0000
  O   O2334     1.0  0.73447  0.15150  0.34250  1.0000
  O   O2335     1.0  0.76553  0.31817  0.50917  1.0000
  O   O2336     1.0  0.93220  0.31817  0.65750  1.0000
  O   O2337     1.0  0.90113  0.15150  0.49083  1.0000
  O   O2338     1.0  0.93220  0.18183  0.65750  1.0000
  O   O2339     1.0  0.90113  0.01517  0.49083  1.0000
  O   O2340     1.0  0.76453  0.00033  0.38547  1.0000
  O   O2341     1.0  0.73547  0.16700  0.55213  1.0000
  O   O2342     1.0  0.76453  0.16633  0.38547  1.0000
  O   O2343     1.0  0.90213  0.33300  0.61453  1.0000
  O   O2344     1.0  0.93120  0.16633  0.44787  1.0000
  O   O2345     1.0  0.90213  0.16700  0.61453  1.0000
  O   O2346     1.0  0.93120  0.00033  0.44787  1.0000
  O   O2347     1.0  0.70250  0.04217  0.36277  1.0000
  O   O2348     1.0  0.79750  0.20883  0.52943  1.0000
  O   O2349     1.0  0.70250  0.12450  0.36277  1.0000
  O   O2350     1.0  0.79750  0.29117  0.52943  1.0000
  O   O2351     1.0  0.96417  0.29117  0.63723  1.0000
  O   O2352     1.0  0.86917  0.12450  0.47057  1.0000
  O   O2353     1.0  0.96417  0.20883  0.63723  1.0000
  O   O2354     1.0  0.86917  0.04217  0.47057  1.0000
  O   O2355     1.0  0.69487  0.01233  0.64810  1.0000
  O   O2356     1.0  0.80513  0.17900  0.48143  1.0000
  O   O2357     1.0  0.69487  0.15433  0.64810  1.0000
  O   O2358     1.0  0.80513  0.32100  0.48143  1.0000
  O   O2359     1.0  0.97180  0.32100  0.35190  1.0000
  O   O2360     1.0  0.86153  0.15433  0.51857  1.0000
  O   O2361     1.0  0.97180  0.17900  0.35190  1.0000
  O   O2362     1.0  0.86153  0.01233  0.51857  1.0000
  O   O2363     1.0  0.71003  0.02603  0.58900  1.0000
  O   O2364     1.0  0.78997  0.19270  0.42233  1.0000
  O   O2365     1.0  0.71003  0.14063  0.58900  1.0000
  O   O2366     1.0  0.78997  0.30730  0.42233  1.0000
  O   O2367     1.0  0.95663  0.30730  0.41100  1.0000
  O   O2368     1.0  0.87670  0.14063  0.57767  1.0000
  O   O2369     1.0  0.95663  0.19270  0.41100  1.0000
  O   O2370     1.0  0.87670  0.02603  0.57767  1.0000
  O   O2371     1.0  0.80907  0.15297  0.42773  1.0000
  O   O2372     1.0  0.69093  0.18037  0.59440  1.0000
  O   O2373     1.0  0.80907  0.01370  0.42773  1.0000
  O   O2374     1.0  0.97573  0.01370  0.40560  1.0000
  O   O2375     1.0  0.85760  0.18037  0.57227  1.0000
  O   O2376     1.0  0.97573  0.15297  0.40560  1.0000
  O   O2377     1.0  0.85760  0.31963  0.57227  1.0000
  O   O2378     1.0  0.74003  0.04377  0.54853  1.0000
  O   O2379     1.0  0.75997  0.21043  0.38187  1.0000
  O   O2380     1.0  0.74003  0.12290  0.54853  1.0000
  O   O2381     1.0  0.75997  0.28957  0.38187  1.0000
  O   O2382     1.0  0.92663  0.28957  0.45147  1.0000
  O   O2383     1.0  0.90670  0.12290  0.61813  1.0000
  O   O2384     1.0  0.92663  0.21043  0.45147  1.0000
  O   O2385     1.0  0.90670  0.04377  0.61813  1.0000
  O   O2386     1.0  0.83037  0.28493  0.57230  1.0000
  O   O2387     1.0  0.66963  0.11827  0.40563  1.0000
  O   O2388     1.0  0.83037  0.21507  0.57230  1.0000
  O   O2389     1.0  0.66963  0.04840  0.40563  1.0000
  O   O2390     1.0  0.83630  0.04840  0.42770  1.0000
  O   O2391     1.0  0.99703  0.21507  0.59437  1.0000
  O   O2392     1.0  0.83630  0.11827  0.42770  1.0000
  O   O2393     1.0  0.99703  0.28493  0.59437  1.0000
  O   O2394     1.0  0.78937  0.27703  0.59143  1.0000
  O   O2395     1.0  0.71063  0.11037  0.42477  1.0000
  O   O2396     1.0  0.78937  0.22297  0.59143  1.0000
  O   O2397     1.0  0.71063  0.05630  0.42477  1.0000
  O   O2398     1.0  0.87730  0.05630  0.40857  1.0000
  O   O2399     1.0  0.95603  0.22297  0.57523  1.0000
  O   O2400     1.0  0.87730  0.11037  0.40857  1.0000
  O   O2401     1.0  0.95603  0.27703  0.57523  1.0000
  O   O2402     1.0  0.80877  0.25000  0.54770  1.0000
  O   O2403     1.0  0.69123  0.08333  0.38103  1.0000
  O   O2404     1.0  0.85790  0.08333  0.45230  1.0000
  O   O2405     1.0  0.97543  0.25000  0.61897  1.0000
  O   O2406     1.0  0.77390  0.28703  0.65203  1.0000
  O   O2407     1.0  0.72610  0.12037  0.48537  1.0000
  O   O2408     1.0  0.77390  0.21297  0.65203  1.0000
  O   O2409     1.0  0.72610  0.04630  0.48537  1.0000
  O   O2410     1.0  0.89277  0.04630  0.34797  1.0000
  O   O2411     1.0  0.94057  0.21297  0.51463  1.0000
  O   O2412     1.0  0.89277  0.12037  0.34797  1.0000
  O   O2413     1.0  0.94057  0.28703  0.51463  1.0000
  O   O2414     1.0  0.74700  0.28607  0.59967  1.0000
  O   O2415     1.0  0.75300  0.11940  0.43300  1.0000
  O   O2416     1.0  0.74700  0.21393  0.59967  1.0000
  O   O2417     1.0  0.75300  0.04727  0.43300  1.0000
  O   O2418     1.0  0.91967  0.04727  0.40033  1.0000
  O   O2419     1.0  0.91367  0.21393  0.56700  1.0000
  O   O2420     1.0  0.91967  0.11940  0.40033  1.0000
  O   O2421     1.0  0.91367  0.28607  0.56700  1.0000
  O   O2422     1.0  0.76477  0.25000  0.35263  1.0000
  O   O2423     1.0  0.73523  0.08333  0.51930  1.0000
  O   O2424     1.0  0.90190  0.08333  0.64737  1.0000
  O   O2425     1.0  0.93143  0.25000  0.48070  1.0000
  O   O2426     1.0  0.73253  0.27710  0.33343  1.0000
  O   O2427     1.0  0.76747  0.11043  0.50010  1.0000
  O   O2428     1.0  0.73253  0.22290  0.33343  1.0000
  O   O2429     1.0  0.76747  0.05623  0.50010  1.0000
  O   O2430     1.0  0.93413  0.05623  0.66657  1.0000
  O   O2431     1.0  0.89920  0.22290  0.49990  1.0000
  O   O2432     1.0  0.93413  0.11043  0.66657  1.0000
  O   O2433     1.0  0.89920  0.27710  0.49990  1.0000
  O   O2434     1.0  0.69827  0.25000  0.34017  1.0000
  O   O2435     1.0  0.80173  0.08333  0.50683  1.0000
  O   O2436     1.0  0.96840  0.08333  0.65983  1.0000
  O   O2437     1.0  0.86493  0.25000  0.49317  1.0000
  O   O2438     1.0  0.80637  0.12233  0.47583  1.0000
  O   O2439     1.0  0.69363  0.21100  0.64250  1.0000
  O   O2440     1.0  0.80637  0.04433  0.47583  1.0000
  O   O2441     1.0  0.97303  0.04433  0.35750  1.0000
  O   O2442     1.0  0.86030  0.21100  0.52417  1.0000
  O   O2443     1.0  0.97303  0.12233  0.35750  1.0000
  O   O2444     1.0  0.86030  0.28900  0.52417  1.0000
  O   O2445     1.0  0.79410  0.11233  0.41353  1.0000
  O   O2446     1.0  0.70590  0.22100  0.58020  1.0000
  O   O2447     1.0  0.79410  0.05433  0.41353  1.0000
  O   O2448     1.0  0.96077  0.05433  0.41980  1.0000
  O   O2449     1.0  0.87257  0.22100  0.58647  1.0000
  O   O2450     1.0  0.96077  0.11233  0.41980  1.0000
  O   O2451     1.0  0.87257  0.27900  0.58647  1.0000
  O   O2452     1.0  0.73720  0.25000  0.56377  1.0000
  O   O2453     1.0  0.76280  0.08333  0.39710  1.0000
  O   O2454     1.0  0.92947  0.08333  0.43623  1.0000
  O   O2455     1.0  0.90387  0.25000  0.60290  1.0000
  Si  Si1067    1.0  0.80713  0.02370  0.56327  1.0000
  Si  Si1068    1.0  0.69287  0.19037  0.39660  1.0000
  Si  Si1069    1.0  0.80713  0.14297  0.56327  1.0000
  Si  Si1070    1.0  0.85953  0.30963  0.43673  1.0000
  Si  Si1071    1.0  0.97380  0.14297  0.60340  1.0000
  Si  Si1072    1.0  0.85953  0.19037  0.43673  1.0000
  Si  Si1073    1.0  0.97380  0.02370  0.60340  1.0000
  Si  Si1074    1.0  0.77530  0.01120  0.61667  1.0000
  Si  Si1075    1.0  0.72470  0.17787  0.45000  1.0000
  Si  Si1076    1.0  0.77530  0.15547  0.61667  1.0000
  Si  Si1077    1.0  0.89137  0.32213  0.38333  1.0000
  Si  Si1078    1.0  0.94197  0.15547  0.55000  1.0000
  Si  Si1079    1.0  0.89137  0.17787  0.38333  1.0000
  Si  Si1080    1.0  0.94197  0.01120  0.55000  1.0000
  Si  Si1081    1.0  0.75973  0.01787  0.35517  1.0000
  Al  Al20      1.0  0.74027  0.18453  0.52183  1.0000
  Si  Si1082    1.0  0.75973  0.14880  0.35517  1.0000
  Si  Si1083    1.0  0.90693  0.31547  0.64483  1.0000
  Si  Si1084    1.0  0.92640  0.14880  0.47817  1.0000
  Si  Si1085    1.0  0.90693  0.18453  0.64483  1.0000
  Si  Si1086    1.0  0.92640  0.01787  0.47817  1.0000
  Si  Si1087    1.0  0.70820  0.01713  0.34937  1.0000
  Si  Si1088    1.0  0.79180  0.18380  0.51603  1.0000
  Si  Si1089    1.0  0.70820  0.14953  0.34937  1.0000
  Si  Si1090    1.0  0.79180  0.31620  0.51603  1.0000
  Si  Si1091    1.0  0.95847  0.31620  0.65063  1.0000
  Si  Si1092    1.0  0.87487  0.14953  0.48397  1.0000
  Si  Si1093    1.0  0.95847  0.18380  0.65063  1.0000
  Si  Si1094    1.0  0.87487  0.01713  0.48397  1.0000
  Si  Si1095    1.0  0.69070  0.01200  0.60777  1.0000
  Si  Si1096    1.0  0.80930  0.17867  0.44110  1.0000
  Si  Si1097    1.0  0.69070  0.15467  0.60777  1.0000
  Si  Si1098    1.0  0.80930  0.32133  0.44110  1.0000
  Si  Si1099    1.0  0.97597  0.32133  0.39223  1.0000
  Si  Si1100    1.0  0.85737  0.15467  0.55890  1.0000
  Si  Si1101    1.0  0.97597  0.17867  0.39223  1.0000
  Si  Si1102    1.0  0.85737  0.01200  0.55890  1.0000
  Si  Si1103    1.0  0.73447  0.02290  0.57323  1.0000
  Si  Si1104    1.0  0.76553  0.18957  0.40657  1.0000
  Si  Si1105    1.0  0.73447  0.14377  0.57323  1.0000
  Si  Si1106    1.0  0.93220  0.31043  0.42677  1.0000
  Si  Si1107    1.0  0.90113  0.14377  0.59343  1.0000
  Al  Al21      1.0  0.93220  0.18957  0.42677  1.0000
  Si  Si1108    1.0  0.90113  0.02290  0.59343  1.0000
  Si  Si1109    1.0  0.80650  0.27580  0.56017  1.0000
  Si  Si1110    1.0  0.69350  0.10913  0.39350  1.0000
  Si  Si1111    1.0  0.80650  0.22420  0.56017  1.0000
  Si  Si1112    1.0  0.69350  0.05753  0.39350  1.0000
  Si  Si1113    1.0  0.86017  0.05753  0.43983  1.0000
  Si  Si1114    1.0  0.97317  0.22420  0.60650  1.0000
  Si  Si1115    1.0  0.86017  0.10913  0.43983  1.0000
  Si  Si1116    1.0  0.97317  0.27580  0.60650  1.0000
  Si  Si1117    1.0  0.77173  0.29217  0.61203  1.0000
  Si  Si1118    1.0  0.72827  0.12550  0.44537  1.0000
  Si  Si1119    1.0  0.77173  0.20783  0.61203  1.0000
  Si  Si1120    1.0  0.72827  0.04117  0.44537  1.0000
  Si  Si1121    1.0  0.89493  0.04117  0.38797  1.0000
  Si  Si1122    1.0  0.93840  0.20783  0.55463  1.0000
  Si  Si1123    1.0  0.89493  0.12550  0.38797  1.0000
  Si  Si1124    1.0  0.93840  0.29217  0.55463  1.0000
  Si  Si1125    1.0  0.75777  0.27593  0.34673  1.0000
  Si  Si1126    1.0  0.74223  0.10927  0.51340  1.0000
  Si  Si1127    1.0  0.75777  0.22407  0.34673  1.0000
  Si  Si1128    1.0  0.74223  0.05740  0.51340  1.0000
  Si  Si1129    1.0  0.90890  0.05740  0.65327  1.0000
  Si  Si1130    1.0  0.92443  0.22407  0.48660  1.0000
  Si  Si1131    1.0  0.90890  0.10927  0.65327  1.0000
  Si  Si1132    1.0  0.92443  0.27593  0.48660  1.0000
  Si  Si1133    1.0  0.79383  0.10930  0.50610  1.0000
  Si  Si1134    1.0  0.70617  0.22403  0.33943  1.0000
  Si  Si1135    1.0  0.79383  0.05737  0.50610  1.0000
  Si  Si1136    1.0  0.96050  0.05737  0.66057  1.0000
  Si  Si1137    1.0  0.87283  0.22403  0.49390  1.0000
  Si  Si1138    1.0  0.96050  0.10930  0.66057  1.0000
  Si  Si1139    1.0  0.87283  0.27597  0.49390  1.0000
  Si  Si1140    1.0  0.81143  0.12647  0.43623  1.0000
  Si  Si1141    1.0  0.68857  0.20687  0.60290  1.0000
  Si  Si1142    1.0  0.81143  0.04020  0.43623  1.0000
  Si  Si1143    1.0  0.97810  0.04020  0.39710  1.0000
  Si  Si1144    1.0  0.85523  0.20687  0.56377  1.0000
  Si  Si1145    1.0  0.97810  0.12647  0.39710  1.0000
  Si  Si1146    1.0  0.85523  0.29313  0.56377  1.0000
  Si  Si1147    1.0  0.76843  0.10960  0.40307  1.0000
  Si  Si1148    1.0  0.73157  0.22373  0.56973  1.0000
  Si  Si1149    1.0  0.76843  0.05707  0.40307  1.0000
  Si  Si1150    1.0  0.93510  0.05707  0.43027  1.0000
  Si  Si1151    1.0  0.89823  0.22373  0.59693  1.0000
  Si  Si1152    1.0  0.93510  0.10960  0.43027  1.0000
  Si  Si1153    1.0  0.89823  0.27627  0.59693  1.0000
  O   O2456     1.0  0.83373  0.02330  0.90060  1.0000
  O   O2457     1.0  0.99960  0.18997  0.73393  1.0000
  O   O2458     1.0  0.83373  0.14337  0.90060  1.0000
  O   O2459     1.0  0.99960  0.31003  0.73393  1.0000
  O   O2460     1.0  0.83293  0.31003  0.76607  1.0000
  O   O2461     1.0  0.66707  0.14337  0.93273  1.0000
  O   O2462     1.0  0.83293  0.18997  0.76607  1.0000
  O   O2463     1.0  0.66707  0.02330  0.93273  1.0000
  O   O2464     1.0  0.79583  0.02477  0.93360  1.0000
  O   O2465     1.0  0.70417  0.19143  0.76693  1.0000
  O   O2466     1.0  0.79583  0.14190  0.93360  1.0000
  O   O2467     1.0  0.87083  0.30857  0.73307  1.0000
  O   O2468     1.0  0.96250  0.14190  0.89973  1.0000
  O   O2469     1.0  0.87083  0.19143  0.73307  1.0000
  O   O2470     1.0  0.96250  0.02477  0.89973  1.0000
  O   O2471     1.0  0.79983  0.04553  0.87503  1.0000
  O   O2472     1.0  0.70017  0.21220  0.70837  1.0000
  O   O2473     1.0  0.79983  0.12113  0.87503  1.0000
  O   O2474     1.0  0.86683  0.28780  0.79163  1.0000
  O   O2475     1.0  0.96650  0.12113  0.95830  1.0000
  O   O2476     1.0  0.86683  0.21220  0.79163  1.0000
  O   O2477     1.0  0.96650  0.04553  0.95830  1.0000
  O   O2478     1.0  0.79907  0.00113  0.87753  1.0000
  O   O2479     1.0  0.70093  0.16780  0.71087  1.0000
  O   O2480     1.0  0.79907  0.16553  0.87753  1.0000
  O   O2481     1.0  0.86760  0.33220  0.78913  1.0000
  O   O2482     1.0  0.96573  0.16553  0.95580  1.0000
  O   O2483     1.0  0.86760  0.16780  0.78913  1.0000
  O   O2484     1.0  0.96573  0.00113  0.95580  1.0000
  O   O2485     1.0  0.77633  0.01283  0.99073  1.0000
  O   O2486     1.0  0.72367  0.17950  0.82407  1.0000
  O   O2487     1.0  0.77633  0.15383  0.99073  1.0000
  O   O2488     1.0  0.89033  0.32050  0.67593  1.0000
  O   O2489     1.0  0.94300  0.15383  0.84260  1.0000
  O   O2490     1.0  0.89033  0.17950  0.67593  1.0000
  O   O2491     1.0  0.94300  0.01283  0.84260  1.0000
  O   O2492     1.0  0.77657  0.31850  0.93850  1.0000
  O   O2493     1.0  0.72343  0.15183  0.77183  1.0000
  O   O2494     1.0  0.77657  0.18150  0.93850  1.0000
  O   O2495     1.0  0.72343  0.01483  0.77183  1.0000
  O   O2496     1.0  0.89010  0.01483  0.72817  1.0000
  O   O2497     1.0  0.94323  0.18150  0.89483  1.0000
  O   O2498     1.0  0.89010  0.15183  0.72817  1.0000
  O   O2499     1.0  0.94323  0.31850  0.89483  1.0000
  O   O2500     1.0  0.75237  0.02210  0.93687  1.0000
  O   O2501     1.0  0.74763  0.18877  0.77020  1.0000
  O   O2502     1.0  0.75237  0.14457  0.93687  1.0000
  O   O2503     1.0  0.91430  0.31123  0.72980  1.0000
  O   O2504     1.0  0.91903  0.14457  0.89647  1.0000
  O   O2505     1.0  0.91430  0.18877  0.72980  1.0000
  O   O2506     1.0  0.91903  0.02210  0.89647  1.0000
  O   O2507     1.0  0.76367  0.04320  0.70200  1.0000
  O   O2508     1.0  0.73633  0.20987  0.86867  1.0000
  O   O2509     1.0  0.76367  0.12347  0.70200  1.0000
  O   O2510     1.0  0.90300  0.29013  0.96467  1.0000
  O   O2511     1.0  0.93033  0.12347  0.79800  1.0000
  O   O2512     1.0  0.90300  0.20987  0.96467  1.0000
  O   O2513     1.0  0.93033  0.04320  0.79800  1.0000
  O   O2514     1.0  0.73447  0.01517  0.67583  1.0000
  O   O2515     1.0  0.76553  0.18183  0.84250  1.0000
  O   O2516     1.0  0.73447  0.15150  0.67583  1.0000
  O   O2517     1.0  0.76553  0.31817  0.84250  1.0000
  O   O2518     1.0  0.93220  0.31817  0.99083  1.0000
  O   O2519     1.0  0.90113  0.15150  0.82417  1.0000
  O   O2520     1.0  0.93220  0.18183  0.99083  1.0000
  O   O2521     1.0  0.90113  0.01517  0.82417  1.0000
  O   O2522     1.0  0.76453  0.00033  0.71880  1.0000
  O   O2523     1.0  0.73547  0.16700  0.88547  1.0000
  O   O2524     1.0  0.76453  0.16633  0.71880  1.0000
  O   O2525     1.0  0.90213  0.33300  0.94787  1.0000
  O   O2526     1.0  0.93120  0.16633  0.78120  1.0000
  O   O2527     1.0  0.90213  0.16700  0.94787  1.0000
  O   O2528     1.0  0.93120  0.00033  0.78120  1.0000
  O   O2529     1.0  0.70250  0.04217  0.69610  1.0000
  O   O2530     1.0  0.79750  0.20883  0.86277  1.0000
  O   O2531     1.0  0.70250  0.12450  0.69610  1.0000
  O   O2532     1.0  0.79750  0.29117  0.86277  1.0000
  O   O2533     1.0  0.96417  0.29117  0.97057  1.0000
  O   O2534     1.0  0.86917  0.12450  0.80390  1.0000
  O   O2535     1.0  0.96417  0.20883  0.97057  1.0000
  O   O2536     1.0  0.86917  0.04217  0.80390  1.0000
  O   O2537     1.0  0.69487  0.01233  0.98143  1.0000
  O   O2538     1.0  0.80513  0.17900  0.81477  1.0000
  O   O2539     1.0  0.69487  0.15433  0.98143  1.0000
  O   O2540     1.0  0.80513  0.32100  0.81477  1.0000
  O   O2541     1.0  0.97180  0.32100  0.68523  1.0000
  O   O2542     1.0  0.86153  0.15433  0.85190  1.0000
  O   O2543     1.0  0.97180  0.17900  0.68523  1.0000
  O   O2544     1.0  0.86153  0.01233  0.85190  1.0000
  O   O2545     1.0  0.71003  0.02603  0.92233  1.0000
  O   O2546     1.0  0.78997  0.19270  0.75567  1.0000
  O   O2547     1.0  0.71003  0.14063  0.92233  1.0000
  O   O2548     1.0  0.78997  0.30730  0.75567  1.0000
  O   O2549     1.0  0.95663  0.30730  0.74433  1.0000
  O   O2550     1.0  0.87670  0.14063  0.91100  1.0000
  O   O2551     1.0  0.95663  0.19270  0.74433  1.0000
  O   O2552     1.0  0.87670  0.02603  0.91100  1.0000
  O   O2553     1.0  0.80907  0.15297  0.76107  1.0000
  O   O2554     1.0  0.69093  0.18037  0.92773  1.0000
  O   O2555     1.0  0.80907  0.01370  0.76107  1.0000
  O   O2556     1.0  0.97573  0.01370  0.73893  1.0000
  O   O2557     1.0  0.85760  0.18037  0.90560  1.0000
  O   O2558     1.0  0.97573  0.15297  0.73893  1.0000
  O   O2559     1.0  0.85760  0.31963  0.90560  1.0000
  O   O2560     1.0  0.74003  0.04377  0.88187  1.0000
  O   O2561     1.0  0.75997  0.21043  0.71520  1.0000
  O   O2562     1.0  0.74003  0.12290  0.88187  1.0000
  O   O2563     1.0  0.75997  0.28957  0.71520  1.0000
  O   O2564     1.0  0.92663  0.28957  0.78480  1.0000
  O   O2565     1.0  0.90670  0.12290  0.95147  1.0000
  O   O2566     1.0  0.92663  0.21043  0.78480  1.0000
  O   O2567     1.0  0.90670  0.04377  0.95147  1.0000
  O   O2568     1.0  0.83037  0.28493  0.90563  1.0000
  O   O2569     1.0  0.66963  0.11827  0.73897  1.0000
  O   O2570     1.0  0.83037  0.21507  0.90563  1.0000
  O   O2571     1.0  0.66963  0.04840  0.73897  1.0000
  O   O2572     1.0  0.83630  0.04840  0.76103  1.0000
  O   O2573     1.0  0.99703  0.21507  0.92770  1.0000
  O   O2574     1.0  0.83630  0.11827  0.76103  1.0000
  O   O2575     1.0  0.99703  0.28493  0.92770  1.0000
  O   O2576     1.0  0.78937  0.27703  0.92477  1.0000
  O   O2577     1.0  0.71063  0.11037  0.75810  1.0000
  O   O2578     1.0  0.78937  0.22297  0.92477  1.0000
  O   O2579     1.0  0.71063  0.05630  0.75810  1.0000
  O   O2580     1.0  0.87730  0.05630  0.74190  1.0000
  O   O2581     1.0  0.95603  0.22297  0.90857  1.0000
  O   O2582     1.0  0.87730  0.11037  0.74190  1.0000
  O   O2583     1.0  0.95603  0.27703  0.90857  1.0000
  O   O2584     1.0  0.80877  0.25000  0.88103  1.0000
  O   O2585     1.0  0.69123  0.08333  0.71437  1.0000
  O   O2586     1.0  0.85790  0.08333  0.78563  1.0000
  O   O2587     1.0  0.97543  0.25000  0.95230  1.0000
  O   O2588     1.0  0.77390  0.28703  0.98537  1.0000
  O   O2589     1.0  0.72610  0.12037  0.81870  1.0000
  O   O2590     1.0  0.77390  0.21297  0.98537  1.0000
  O   O2591     1.0  0.72610  0.04630  0.81870  1.0000
  O   O2592     1.0  0.89277  0.04630  0.68130  1.0000
  O   O2593     1.0  0.94057  0.21297  0.84797  1.0000
  O   O2594     1.0  0.89277  0.12037  0.68130  1.0000
  O   O2595     1.0  0.94057  0.28703  0.84797  1.0000
  O   O2596     1.0  0.74700  0.28607  0.93300  1.0000
  O   O2597     1.0  0.75300  0.11940  0.76633  1.0000
  O   O2598     1.0  0.74700  0.21393  0.93300  1.0000
  O   O2599     1.0  0.75300  0.04727  0.76633  1.0000
  O   O2600     1.0  0.91967  0.04727  0.73367  1.0000
  O   O2601     1.0  0.91367  0.21393  0.90033  1.0000
  O   O2602     1.0  0.91967  0.11940  0.73367  1.0000
  O   O2603     1.0  0.91367  0.28607  0.90033  1.0000
  O   O2604     1.0  0.76477  0.25000  0.68597  1.0000
  O   O2605     1.0  0.73523  0.08333  0.85263  1.0000
  O   O2606     1.0  0.90190  0.08333  0.98070  1.0000
  O   O2607     1.0  0.93143  0.25000  0.81403  1.0000
  O   O2608     1.0  0.73253  0.27710  0.66677  1.0000
  O   O2609     1.0  0.76747  0.11043  0.83343  1.0000
  O   O2610     1.0  0.73253  0.22290  0.66677  1.0000
  O   O2611     1.0  0.76747  0.05623  0.83343  1.0000
  O   O2612     1.0  0.93413  0.05623  0.99990  1.0000
  O   O2613     1.0  0.89920  0.22290  0.83323  1.0000
  O   O2614     1.0  0.93413  0.11043  0.99990  1.0000
  O   O2615     1.0  0.89920  0.27710  0.83323  1.0000
  O   O2616     1.0  0.69827  0.25000  0.67350  1.0000
  O   O2617     1.0  0.80173  0.08333  0.84017  1.0000
  O   O2618     1.0  0.96840  0.08333  0.99317  1.0000
  O   O2619     1.0  0.86493  0.25000  0.82650  1.0000
  O   O2620     1.0  0.80637  0.12233  0.80917  1.0000
  O   O2621     1.0  0.69363  0.21100  0.97583  1.0000
  O   O2622     1.0  0.80637  0.04433  0.80917  1.0000
  O   O2623     1.0  0.97303  0.04433  0.69083  1.0000
  O   O2624     1.0  0.86030  0.21100  0.85750  1.0000
  O   O2625     1.0  0.97303  0.12233  0.69083  1.0000
  O   O2626     1.0  0.86030  0.28900  0.85750  1.0000
  O   O2627     1.0  0.79410  0.11233  0.74687  1.0000
  O   O2628     1.0  0.70590  0.22100  0.91353  1.0000
  O   O2629     1.0  0.79410  0.05433  0.74687  1.0000
  O   O2630     1.0  0.96077  0.05433  0.75313  1.0000
  O   O2631     1.0  0.87257  0.22100  0.91980  1.0000
  O   O2632     1.0  0.96077  0.11233  0.75313  1.0000
  O   O2633     1.0  0.87257  0.27900  0.91980  1.0000
  O   O2634     1.0  0.73720  0.25000  0.89710  1.0000
  O   O2635     1.0  0.76280  0.08333  0.73043  1.0000
  O   O2636     1.0  0.92947  0.08333  0.76957  1.0000
  O   O2637     1.0  0.90387  0.25000  0.93623  1.0000
  Si  Si1154    1.0  0.80713  0.02370  0.89660  1.0000
  Si  Si1155    1.0  0.69287  0.19037  0.72993  1.0000
  Si  Si1156    1.0  0.80713  0.14297  0.89660  1.0000
  Si  Si1157    1.0  0.85953  0.30963  0.77007  1.0000
  Si  Si1158    1.0  0.97380  0.14297  0.93673  1.0000
  Si  Si1159    1.0  0.85953  0.19037  0.77007  1.0000
  Si  Si1160    1.0  0.97380  0.02370  0.93673  1.0000
  Si  Si1161    1.0  0.77530  0.01120  0.95000  1.0000
  Si  Si1162    1.0  0.72470  0.17787  0.78333  1.0000
  Si  Si1163    1.0  0.77530  0.15547  0.95000  1.0000
  Si  Si1164    1.0  0.89137  0.32213  0.71667  1.0000
  Si  Si1165    1.0  0.94197  0.15547  0.88333  1.0000
  Si  Si1166    1.0  0.89137  0.17787  0.71667  1.0000
  Si  Si1167    1.0  0.94197  0.01120  0.88333  1.0000
  Si  Si1168    1.0  0.75973  0.01787  0.68850  1.0000
  Si  Si1169    1.0  0.74027  0.18453  0.85517  1.0000
  Si  Si1170    1.0  0.75973  0.14880  0.68850  1.0000
  Si  Si1171    1.0  0.90693  0.31547  0.97817  1.0000
  Si  Si1172    1.0  0.92640  0.14880  0.81150  1.0000
  Si  Si1173    1.0  0.90693  0.18453  0.97817  1.0000
  Si  Si1174    1.0  0.92640  0.01787  0.81150  1.0000
  Si  Si1175    1.0  0.70820  0.01713  0.68270  1.0000
  Si  Si1176    1.0  0.79180  0.18380  0.84937  1.0000
  Si  Si1177    1.0  0.70820  0.14953  0.68270  1.0000
  Si  Si1178    1.0  0.79180  0.31620  0.84937  1.0000
  Si  Si1179    1.0  0.95847  0.31620  0.98397  1.0000
  Al  Al22      1.0  0.87487  0.14953  0.81730  1.0000
  Si  Si1180    1.0  0.95847  0.18380  0.98397  1.0000
  Si  Si1181    1.0  0.87487  0.01713  0.81730  1.0000
  Si  Si1182    1.0  0.69070  0.01200  0.94110  1.0000
  Si  Si1183    1.0  0.80930  0.17867  0.77443  1.0000
  Si  Si1184    1.0  0.69070  0.15467  0.94110  1.0000
  Si  Si1185    1.0  0.80930  0.32133  0.77443  1.0000
  Si  Si1186    1.0  0.97597  0.32133  0.72557  1.0000
  Si  Si1187    1.0  0.85737  0.15467  0.89223  1.0000
  Si  Si1188    1.0  0.97597  0.17867  0.72557  1.0000
  Si  Si1189    1.0  0.85737  0.01200  0.89223  1.0000
  Si  Si1190    1.0  0.73447  0.02290  0.90657  1.0000
  Si  Si1191    1.0  0.76553  0.18957  0.73990  1.0000
  Si  Si1192    1.0  0.73447  0.14377  0.90657  1.0000
  Si  Si1193    1.0  0.93220  0.31043  0.76010  1.0000
  Si  Si1194    1.0  0.90113  0.14377  0.92677  1.0000
  Si  Si1195    1.0  0.93220  0.18957  0.76010  1.0000
  Si  Si1196    1.0  0.90113  0.02290  0.92677  1.0000
  Si  Si1197    1.0  0.80650  0.27580  0.89350  1.0000
  Si  Si1198    1.0  0.69350  0.10913  0.72683  1.0000
  Si  Si1199    1.0  0.80650  0.22420  0.89350  1.0000
  Si  Si1200    1.0  0.69350  0.05753  0.72683  1.0000
  Si  Si1201    1.0  0.86017  0.05753  0.77317  1.0000
  Si  Si1202    1.0  0.97317  0.22420  0.93983  1.0000
  Si  Si1203    1.0  0.86017  0.10913  0.77317  1.0000
  Si  Si1204    1.0  0.97317  0.27580  0.93983  1.0000
  Si  Si1205    1.0  0.77173  0.29217  0.94537  1.0000
  Si  Si1206    1.0  0.72827  0.12550  0.77870  1.0000
  Si  Si1207    1.0  0.77173  0.20783  0.94537  1.0000
  Si  Si1208    1.0  0.72827  0.04117  0.77870  1.0000
  Si  Si1209    1.0  0.89493  0.04117  0.72130  1.0000
  Si  Si1210    1.0  0.93840  0.20783  0.88797  1.0000
  Si  Si1211    1.0  0.89493  0.12550  0.72130  1.0000
  Si  Si1212    1.0  0.93840  0.29217  0.88797  1.0000
  Si  Si1213    1.0  0.75777  0.27593  0.68007  1.0000
  Si  Si1214    1.0  0.74223  0.10927  0.84673  1.0000
  Si  Si1215    1.0  0.75777  0.22407  0.68007  1.0000
  Si  Si1216    1.0  0.74223  0.05740  0.84673  1.0000
  Si  Si1217    1.0  0.90890  0.05740  0.98660  1.0000
  Si  Si1218    1.0  0.92443  0.22407  0.81993  1.0000
  Si  Si1219    1.0  0.90890  0.10927  0.98660  1.0000
  Si  Si1220    1.0  0.92443  0.27593  0.81993  1.0000
  Si  Si1221    1.0  0.79383  0.10930  0.83943  1.0000
  Si  Si1222    1.0  0.70617  0.22403  0.67277  1.0000
  Si  Si1223    1.0  0.79383  0.05737  0.83943  1.0000
  Si  Si1224    1.0  0.96050  0.05737  0.99390  1.0000
  Si  Si1225    1.0  0.87283  0.22403  0.82723  1.0000
  Si  Si1226    1.0  0.96050  0.10930  0.99390  1.0000
  Si  Si1227    1.0  0.87283  0.27597  0.82723  1.0000
  Si  Si1228    1.0  0.81143  0.12647  0.76957  1.0000
  Si  Si1229    1.0  0.68857  0.20687  0.93623  1.0000
  Si  Si1230    1.0  0.81143  0.04020  0.76957  1.0000
  Si  Si1231    1.0  0.97810  0.04020  0.73043  1.0000
  Si  Si1232    1.0  0.85523  0.20687  0.89710  1.0000
  Si  Si1233    1.0  0.97810  0.12647  0.73043  1.0000
  Si  Si1234    1.0  0.85523  0.29313  0.89710  1.0000
  Si  Si1235    1.0  0.76843  0.10960  0.73640  1.0000
  Si  Si1236    1.0  0.73157  0.22373  0.90307  1.0000
  Si  Si1237    1.0  0.76843  0.05707  0.73640  1.0000
  Si  Si1238    1.0  0.93510  0.05707  0.76360  1.0000
  Si  Si1239    1.0  0.89823  0.22373  0.93027  1.0000
  Si  Si1240    1.0  0.93510  0.10960  0.76360  1.0000
  Si  Si1241    1.0  0.89823  0.27627  0.93027  1.0000
  O   O2638     1.0  0.83373  0.35663  0.23393  1.0000
  O   O2639     1.0  0.99960  0.52330  0.06727  1.0000
  O   O2640     1.0  0.83373  0.47670  0.23393  1.0000
  O   O2641     1.0  0.99960  0.64337  0.06727  1.0000
  O   O2642     1.0  0.83293  0.64337  0.09940  1.0000
  O   O2643     1.0  0.83293  0.52330  0.09940  1.0000
  O   O2644     1.0  0.79583  0.35810  0.26693  1.0000
  O   O2645     1.0  0.87083  0.64190  0.06640  1.0000
  O   O2646     1.0  0.96250  0.47523  0.23307  1.0000
  O   O2647     1.0  0.87083  0.52477  0.06640  1.0000
  O   O2648     1.0  0.96250  0.35810  0.23307  1.0000
  O   O2649     1.0  0.79983  0.37887  0.20837  1.0000
  O   O2650     1.0  0.86683  0.62113  0.12497  1.0000
  O   O2651     1.0  0.96650  0.45447  0.29163  1.0000
  O   O2652     1.0  0.86683  0.54553  0.12497  1.0000
  O   O2653     1.0  0.96650  0.37887  0.29163  1.0000
  O   O2654     1.0  0.79907  0.33447  0.21087  1.0000
  O   O2655     1.0  0.86760  0.66553  0.12247  1.0000
  O   O2656     1.0  0.96573  0.49887  0.28913  1.0000
  O   O2657     1.0  0.86760  0.50113  0.12247  1.0000
  O   O2658     1.0  0.96573  0.33447  0.28913  1.0000
  O   O2659     1.0  0.89033  0.65383  0.00927  1.0000
  O   O2660     1.0  0.94300  0.48717  0.17593  1.0000
  O   O2661     1.0  0.89033  0.51283  0.00927  1.0000
  O   O2662     1.0  0.94300  0.34617  0.17593  1.0000
  O   O2663     1.0  0.89010  0.34817  0.06150  1.0000
  O   O2664     1.0  0.94323  0.51483  0.22817  1.0000
  O   O2665     1.0  0.89010  0.48517  0.06150  1.0000
  O   O2666     1.0  0.94323  0.65183  0.22817  1.0000
  O   O2667     1.0  0.91430  0.64457  0.06313  1.0000
  O   O2668     1.0  0.91903  0.47790  0.22980  1.0000
  O   O2669     1.0  0.91430  0.52210  0.06313  1.0000
  O   O2670     1.0  0.91903  0.35543  0.22980  1.0000
  O   O2671     1.0  0.90300  0.62347  0.29800  1.0000
  O   O2672     1.0  0.93033  0.45680  0.13133  1.0000
  O   O2673     1.0  0.90300  0.54320  0.29800  1.0000
  O   O2674     1.0  0.93033  0.37653  0.13133  1.0000
  O   O2675     1.0  0.93220  0.65150  0.32417  1.0000
  O   O2676     1.0  0.90113  0.48483  0.15750  1.0000
  O   O2677     1.0  0.93220  0.51517  0.32417  1.0000
  O   O2678     1.0  0.90113  0.34850  0.15750  1.0000
  O   O2679     1.0  0.90213  0.66633  0.28120  1.0000
  O   O2680     1.0  0.93120  0.49967  0.11453  1.0000
  O   O2681     1.0  0.90213  0.50033  0.28120  1.0000
  O   O2682     1.0  0.93120  0.33367  0.11453  1.0000
  O   O2683     1.0  0.96417  0.62450  0.30390  1.0000
  O   O2684     1.0  0.86917  0.45783  0.13723  1.0000
  O   O2685     1.0  0.96417  0.54217  0.30390  1.0000
  O   O2686     1.0  0.86917  0.37550  0.13723  1.0000
  O   O2687     1.0  0.80513  0.65433  0.14810  1.0000
  O   O2688     1.0  0.97180  0.65433  0.01857  1.0000
  O   O2689     1.0  0.86153  0.48767  0.18523  1.0000
  O   O2690     1.0  0.97180  0.51233  0.01857  1.0000
  O   O2691     1.0  0.86153  0.34567  0.18523  1.0000
  O   O2692     1.0  0.78997  0.64063  0.08900  1.0000
  O   O2693     1.0  0.95663  0.64063  0.07767  1.0000
  O   O2694     1.0  0.87670  0.47397  0.24433  1.0000
  O   O2695     1.0  0.95663  0.52603  0.07767  1.0000
  O   O2696     1.0  0.87670  0.35937  0.24433  1.0000
  O   O2697     1.0  0.80907  0.34703  0.09440  1.0000
  O   O2698     1.0  0.97573  0.34703  0.07227  1.0000
  O   O2699     1.0  0.85760  0.51370  0.23893  1.0000
  O   O2700     1.0  0.97573  0.48630  0.07227  1.0000
  O   O2701     1.0  0.85760  0.65297  0.23893  1.0000
  O   O2702     1.0  0.92663  0.62290  0.11813  1.0000
  O   O2703     1.0  0.90670  0.45623  0.28480  1.0000
  O   O2704     1.0  0.92663  0.54377  0.11813  1.0000
  O   O2705     1.0  0.90670  0.37710  0.28480  1.0000
  O   O2706     1.0  0.83037  0.61827  0.23897  1.0000
  O   O2707     1.0  0.83037  0.54840  0.23897  1.0000
  O   O2708     1.0  0.83630  0.38173  0.09437  1.0000
  O   O2709     1.0  0.99703  0.54840  0.26103  1.0000
  O   O2710     1.0  0.83630  0.45160  0.09437  1.0000
  O   O2711     1.0  0.99703  0.61827  0.26103  1.0000
  O   O2712     1.0  0.87730  0.38963  0.07523  1.0000
  O   O2713     1.0  0.95603  0.55630  0.24190  1.0000
  O   O2714     1.0  0.87730  0.44370  0.07523  1.0000
  O   O2715     1.0  0.95603  0.61037  0.24190  1.0000
  O   O2716     1.0  0.85790  0.41667  0.11897  1.0000
  O   O2717     1.0  0.97543  0.58333  0.28563  1.0000
  O   O2718     1.0  0.89277  0.37963  0.01463  1.0000
  O   O2719     1.0  0.94057  0.54630  0.18130  1.0000
  O   O2720     1.0  0.89277  0.45370  0.01463  1.0000
  O   O2721     1.0  0.94057  0.62037  0.18130  1.0000
  O   O2722     1.0  0.91967  0.38060  0.06700  1.0000
  O   O2723     1.0  0.91367  0.54727  0.23367  1.0000
  O   O2724     1.0  0.91967  0.45273  0.06700  1.0000
  O   O2725     1.0  0.91367  0.61940  0.23367  1.0000
  O   O2726     1.0  0.90190  0.41667  0.31403  1.0000
  O   O2727     1.0  0.93143  0.58333  0.14737  1.0000
  O   O2728     1.0  0.93413  0.38957  0.33323  1.0000
  O   O2729     1.0  0.89920  0.55623  0.16657  1.0000
  O   O2730     1.0  0.93413  0.44377  0.33323  1.0000
  O   O2731     1.0  0.89920  0.61043  0.16657  1.0000
  O   O2732     1.0  0.96840  0.41667  0.32650  1.0000
  O   O2733     1.0  0.86493  0.58333  0.15983  1.0000
  O   O2734     1.0  0.80637  0.37767  0.14250  1.0000
  O   O2735     1.0  0.97303  0.37767  0.02417  1.0000
  O   O2736     1.0  0.86030  0.54433  0.19083  1.0000
  O   O2737     1.0  0.97303  0.45567  0.02417  1.0000
  O   O2738     1.0  0.86030  0.62233  0.19083  1.0000
  O   O2739     1.0  0.79410  0.38767  0.08020  1.0000
  O   O2740     1.0  0.96077  0.38767  0.08647  1.0000
  O   O2741     1.0  0.87257  0.55433  0.25313  1.0000
  O   O2742     1.0  0.96077  0.44567  0.08647  1.0000
  O   O2743     1.0  0.87257  0.61233  0.25313  1.0000
  O   O2744     1.0  0.92947  0.41667  0.10290  1.0000
  O   O2745     1.0  0.90387  0.58333  0.26957  1.0000
  Si  Si1242    1.0  0.80713  0.35703  0.22993  1.0000
  Si  Si1243    1.0  0.85953  0.64297  0.10340  1.0000
  Si  Si1244    1.0  0.97380  0.47630  0.27007  1.0000
  Si  Si1245    1.0  0.85953  0.52370  0.10340  1.0000
  Si  Si1246    1.0  0.97380  0.35703  0.27007  1.0000
  Si  Si1247    1.0  0.89137  0.65547  0.05000  1.0000
  Si  Si1248    1.0  0.94197  0.48880  0.21667  1.0000
  Si  Si1249    1.0  0.89137  0.51120  0.05000  1.0000
  Si  Si1250    1.0  0.94197  0.34453  0.21667  1.0000
  Si  Si1251    1.0  0.90693  0.64880  0.31150  1.0000
  Si  Si1252    1.0  0.92640  0.48213  0.14483  1.0000
  Si  Si1253    1.0  0.90693  0.51787  0.31150  1.0000
  Si  Si1254    1.0  0.92640  0.35120  0.14483  1.0000
  Si  Si1255    1.0  0.95847  0.64953  0.31730  1.0000
  Si  Si1256    1.0  0.87487  0.48287  0.15063  1.0000
  Si  Si1257    1.0  0.95847  0.51713  0.31730  1.0000
  Si  Si1258    1.0  0.87487  0.35047  0.15063  1.0000
  Si  Si1259    1.0  0.80930  0.65467  0.10777  1.0000
  Si  Si1260    1.0  0.97597  0.65467  0.05890  1.0000
  Si  Si1261    1.0  0.85737  0.48800  0.22557  1.0000
  Si  Si1262    1.0  0.97597  0.51200  0.05890  1.0000
  Si  Si1263    1.0  0.85737  0.34533  0.22557  1.0000
  Si  Si1264    1.0  0.93220  0.64377  0.09343  1.0000
  Si  Si1265    1.0  0.90113  0.47710  0.26010  1.0000
  Si  Si1266    1.0  0.93220  0.52290  0.09343  1.0000
  Si  Si1267    1.0  0.90113  0.35623  0.26010  1.0000
  Si  Si1268    1.0  0.86017  0.39087  0.10650  1.0000
  Si  Si1269    1.0  0.97317  0.55753  0.27317  1.0000
  Si  Si1270    1.0  0.86017  0.44247  0.10650  1.0000
  Si  Si1271    1.0  0.97317  0.60913  0.27317  1.0000
  Si  Si1272    1.0  0.89493  0.37450  0.05463  1.0000
  Si  Si1273    1.0  0.93840  0.54117  0.22130  1.0000
  Si  Si1274    1.0  0.89493  0.45883  0.05463  1.0000
  Si  Si1275    1.0  0.93840  0.62550  0.22130  1.0000
  Si  Si1276    1.0  0.90890  0.39073  0.31993  1.0000
  Si  Si1277    1.0  0.92443  0.55740  0.15327  1.0000
  Si  Si1278    1.0  0.90890  0.44260  0.31993  1.0000
  Si  Si1279    1.0  0.92443  0.60927  0.15327  1.0000
  Si  Si1280    1.0  0.96050  0.39070  0.32723  1.0000
  Si  Si1281    1.0  0.87283  0.55737  0.16057  1.0000
  Si  Si1282    1.0  0.96050  0.44263  0.32723  1.0000
  Al  Al23      1.0  0.87283  0.60930  0.16057  1.0000
  Si  Si1283    1.0  0.81143  0.37353  0.10290  1.0000
  Si  Si1284    1.0  0.97810  0.37353  0.06377  1.0000
  Si  Si1285    1.0  0.85523  0.54020  0.23043  1.0000
  Si  Si1286    1.0  0.97810  0.45980  0.06377  1.0000
  Si  Si1287    1.0  0.85523  0.62647  0.23043  1.0000
  Si  Si1288    1.0  0.93510  0.39040  0.09693  1.0000
  Si  Si1289    1.0  0.89823  0.55707  0.26360  1.0000
  Si  Si1290    1.0  0.93510  0.44293  0.09693  1.0000
  Si  Si1291    1.0  0.89823  0.60960  0.26360  1.0000
  O   O2746     1.0  0.83373  0.35663  0.56727  1.0000
  O   O2747     1.0  0.99960  0.52330  0.40060  1.0000
  O   O2748     1.0  0.83373  0.47670  0.56727  1.0000
  O   O2749     1.0  0.99960  0.64337  0.40060  1.0000
  O   O2750     1.0  0.83293  0.64337  0.43273  1.0000
  O   O2751     1.0  0.83293  0.52330  0.43273  1.0000
  O   O2752     1.0  0.79583  0.35810  0.60027  1.0000
  O   O2753     1.0  0.87083  0.64190  0.39973  1.0000
  O   O2754     1.0  0.96250  0.47523  0.56640  1.0000
  O   O2755     1.0  0.87083  0.52477  0.39973  1.0000
  O   O2756     1.0  0.96250  0.35810  0.56640  1.0000
  O   O2757     1.0  0.79983  0.37887  0.54170  1.0000
  O   O2758     1.0  0.86683  0.62113  0.45830  1.0000
  O   O2759     1.0  0.96650  0.45447  0.62497  1.0000
  O   O2760     1.0  0.86683  0.54553  0.45830  1.0000
  O   O2761     1.0  0.96650  0.37887  0.62497  1.0000
  O   O2762     1.0  0.79907  0.33447  0.54420  1.0000
  O   O2763     1.0  0.86760  0.66553  0.45580  1.0000
  O   O2764     1.0  0.96573  0.49887  0.62247  1.0000
  O   O2765     1.0  0.86760  0.50113  0.45580  1.0000
  O   O2766     1.0  0.96573  0.33447  0.62247  1.0000
  O   O2767     1.0  0.89033  0.65383  0.34260  1.0000
  O   O2768     1.0  0.94300  0.48717  0.50927  1.0000
  O   O2769     1.0  0.89033  0.51283  0.34260  1.0000
  O   O2770     1.0  0.94300  0.34617  0.50927  1.0000
  O   O2771     1.0  0.89010  0.34817  0.39483  1.0000
  O   O2772     1.0  0.94323  0.51483  0.56150  1.0000
  O   O2773     1.0  0.89010  0.48517  0.39483  1.0000
  O   O2774     1.0  0.94323  0.65183  0.56150  1.0000
  O   O2775     1.0  0.91430  0.64457  0.39647  1.0000
  O   O2776     1.0  0.91903  0.47790  0.56313  1.0000
  O   O2777     1.0  0.91430  0.52210  0.39647  1.0000
  O   O2778     1.0  0.91903  0.35543  0.56313  1.0000
  O   O2779     1.0  0.90300  0.62347  0.63133  1.0000
  O   O2780     1.0  0.93033  0.45680  0.46467  1.0000
  O   O2781     1.0  0.90300  0.54320  0.63133  1.0000
  O   O2782     1.0  0.93033  0.37653  0.46467  1.0000
  O   O2783     1.0  0.93220  0.65150  0.65750  1.0000
  O   O2784     1.0  0.90113  0.48483  0.49083  1.0000
  O   O2785     1.0  0.93220  0.51517  0.65750  1.0000
  O   O2786     1.0  0.90113  0.34850  0.49083  1.0000
  O   O2787     1.0  0.90213  0.66633  0.61453  1.0000
  O   O2788     1.0  0.93120  0.49967  0.44787  1.0000
  O   O2789     1.0  0.90213  0.50033  0.61453  1.0000
  O   O2790     1.0  0.93120  0.33367  0.44787  1.0000
  O   O2791     1.0  0.96417  0.62450  0.63723  1.0000
  O   O2792     1.0  0.86917  0.45783  0.47057  1.0000
  O   O2793     1.0  0.96417  0.54217  0.63723  1.0000
  O   O2794     1.0  0.86917  0.37550  0.47057  1.0000
  O   O2795     1.0  0.80513  0.65433  0.48143  1.0000
  O   O2796     1.0  0.97180  0.65433  0.35190  1.0000
  O   O2797     1.0  0.86153  0.48767  0.51857  1.0000
  O   O2798     1.0  0.97180  0.51233  0.35190  1.0000
  O   O2799     1.0  0.86153  0.34567  0.51857  1.0000
  O   O2800     1.0  0.78997  0.64063  0.42233  1.0000
  O   O2801     1.0  0.95663  0.64063  0.41100  1.0000
  O   O2802     1.0  0.87670  0.47397  0.57767  1.0000
  O   O2803     1.0  0.95663  0.52603  0.41100  1.0000
  O   O2804     1.0  0.87670  0.35937  0.57767  1.0000
  O   O2805     1.0  0.80907  0.34703  0.42773  1.0000
  O   O2806     1.0  0.97573  0.34703  0.40560  1.0000
  O   O2807     1.0  0.85760  0.51370  0.57227  1.0000
  O   O2808     1.0  0.97573  0.48630  0.40560  1.0000
  O   O2809     1.0  0.85760  0.65297  0.57227  1.0000
  O   O2810     1.0  0.92663  0.62290  0.45147  1.0000
  O   O2811     1.0  0.90670  0.45623  0.61813  1.0000
  O   O2812     1.0  0.92663  0.54377  0.45147  1.0000
  O   O2813     1.0  0.90670  0.37710  0.61813  1.0000
  O   O2814     1.0  0.83037  0.61827  0.57230  1.0000
  O   O2815     1.0  0.83037  0.54840  0.57230  1.0000
  O   O2816     1.0  0.83630  0.38173  0.42770  1.0000
  O   O2817     1.0  0.99703  0.54840  0.59437  1.0000
  O   O2818     1.0  0.83630  0.45160  0.42770  1.0000
  O   O2819     1.0  0.99703  0.61827  0.59437  1.0000
  O   O2820     1.0  0.87730  0.38963  0.40857  1.0000
  O   O2821     1.0  0.95603  0.55630  0.57523  1.0000
  O   O2822     1.0  0.87730  0.44370  0.40857  1.0000
  O   O2823     1.0  0.95603  0.61037  0.57523  1.0000
  O   O2824     1.0  0.85790  0.41667  0.45230  1.0000
  O   O2825     1.0  0.97543  0.58333  0.61897  1.0000
  O   O2826     1.0  0.89277  0.37963  0.34797  1.0000
  O   O2827     1.0  0.94057  0.54630  0.51463  1.0000
  O   O2828     1.0  0.89277  0.45370  0.34797  1.0000
  O   O2829     1.0  0.94057  0.62037  0.51463  1.0000
  O   O2830     1.0  0.91967  0.38060  0.40033  1.0000
  O   O2831     1.0  0.91367  0.54727  0.56700  1.0000
  O   O2832     1.0  0.91967  0.45273  0.40033  1.0000
  O   O2833     1.0  0.91367  0.61940  0.56700  1.0000
  O   O2834     1.0  0.90190  0.41667  0.64737  1.0000
  O   O2835     1.0  0.93143  0.58333  0.48070  1.0000
  O   O2836     1.0  0.93413  0.38957  0.66657  1.0000
  O   O2837     1.0  0.89920  0.55623  0.49990  1.0000
  O   O2838     1.0  0.93413  0.44377  0.66657  1.0000
  O   O2839     1.0  0.89920  0.61043  0.49990  1.0000
  O   O2840     1.0  0.96840  0.41667  0.65983  1.0000
  O   O2841     1.0  0.86493  0.58333  0.49317  1.0000
  O   O2842     1.0  0.80637  0.37767  0.47583  1.0000
  O   O2843     1.0  0.97303  0.37767  0.35750  1.0000
  O   O2844     1.0  0.86030  0.54433  0.52417  1.0000
  O   O2845     1.0  0.97303  0.45567  0.35750  1.0000
  O   O2846     1.0  0.86030  0.62233  0.52417  1.0000
  O   O2847     1.0  0.79410  0.38767  0.41353  1.0000
  O   O2848     1.0  0.96077  0.38767  0.41980  1.0000
  O   O2849     1.0  0.87257  0.55433  0.58647  1.0000
  O   O2850     1.0  0.96077  0.44567  0.41980  1.0000
  O   O2851     1.0  0.87257  0.61233  0.58647  1.0000
  O   O2852     1.0  0.92947  0.41667  0.43623  1.0000
  O   O2853     1.0  0.90387  0.58333  0.60290  1.0000
  Si  Si1292    1.0  0.80713  0.35703  0.56327  1.0000
  Si  Si1293    1.0  0.85953  0.64297  0.43673  1.0000
  Si  Si1294    1.0  0.97380  0.47630  0.60340  1.0000
  Si  Si1295    1.0  0.85953  0.52370  0.43673  1.0000
  Si  Si1296    1.0  0.97380  0.35703  0.60340  1.0000
  Si  Si1297    1.0  0.89137  0.65547  0.38333  1.0000
  Si  Si1298    1.0  0.94197  0.48880  0.55000  1.0000
  Si  Si1299    1.0  0.89137  0.51120  0.38333  1.0000
  Si  Si1300    1.0  0.94197  0.34453  0.55000  1.0000
  Si  Si1301    1.0  0.90693  0.64880  0.64483  1.0000
  Si  Si1302    1.0  0.92640  0.48213  0.47817  1.0000
  Si  Si1303    1.0  0.90693  0.51787  0.64483  1.0000
  Si  Si1304    1.0  0.92640  0.35120  0.47817  1.0000
  Si  Si1305    1.0  0.95847  0.64953  0.65063  1.0000
  Si  Si1306    1.0  0.87487  0.48287  0.48397  1.0000
  Si  Si1307    1.0  0.95847  0.51713  0.65063  1.0000
  Si  Si1308    1.0  0.87487  0.35047  0.48397  1.0000
  Si  Si1309    1.0  0.80930  0.65467  0.44110  1.0000
  Al  Al24      1.0  0.97597  0.65467  0.39223  1.0000
  Si  Si1310    1.0  0.85737  0.48800  0.55890  1.0000
  Si  Si1311    1.0  0.97597  0.51200  0.39223  1.0000
  Si  Si1312    1.0  0.85737  0.34533  0.55890  1.0000
  Si  Si1313    1.0  0.93220  0.64377  0.42677  1.0000
  Si  Si1314    1.0  0.90113  0.47710  0.59343  1.0000
  Si  Si1315    1.0  0.93220  0.52290  0.42677  1.0000
  Si  Si1316    1.0  0.90113  0.35623  0.59343  1.0000
  Si  Si1317    1.0  0.86017  0.39087  0.43983  1.0000
  Si  Si1318    1.0  0.97317  0.55753  0.60650  1.0000
  Si  Si1319    1.0  0.86017  0.44247  0.43983  1.0000
  Si  Si1320    1.0  0.97317  0.60913  0.60650  1.0000
  Si  Si1321    1.0  0.89493  0.37450  0.38797  1.0000
  Si  Si1322    1.0  0.93840  0.54117  0.55463  1.0000
  Si  Si1323    1.0  0.89493  0.45883  0.38797  1.0000
  Si  Si1324    1.0  0.93840  0.62550  0.55463  1.0000
  Si  Si1325    1.0  0.90890  0.39073  0.65327  1.0000
  Si  Si1326    1.0  0.92443  0.55740  0.48660  1.0000
  Si  Si1327    1.0  0.90890  0.44260  0.65327  1.0000
  Si  Si1328    1.0  0.92443  0.60927  0.48660  1.0000
  Si  Si1329    1.0  0.96050  0.39070  0.66057  1.0000
  Si  Si1330    1.0  0.87283  0.55737  0.49390  1.0000
  Si  Si1331    1.0  0.96050  0.44263  0.66057  1.0000
  Si  Si1332    1.0  0.87283  0.60930  0.49390  1.0000
  Si  Si1333    1.0  0.81143  0.37353  0.43623  1.0000
  Si  Si1334    1.0  0.97810  0.37353  0.39710  1.0000
  Si  Si1335    1.0  0.85523  0.54020  0.56377  1.0000
  Si  Si1336    1.0  0.97810  0.45980  0.39710  1.0000
  Si  Si1337    1.0  0.85523  0.62647  0.56377  1.0000
  Si  Si1338    1.0  0.93510  0.39040  0.43027  1.0000
  Si  Si1339    1.0  0.89823  0.55707  0.59693  1.0000
  Si  Si1340    1.0  0.93510  0.44293  0.43027  1.0000
  Si  Si1341    1.0  0.89823  0.60960  0.59693  1.0000
  O   O2854     1.0  0.83373  0.35663  0.90060  1.0000
  O   O2855     1.0  0.99960  0.52330  0.73393  1.0000
  O   O2856     1.0  0.83373  0.47670  0.90060  1.0000
  O   O2857     1.0  0.99960  0.64337  0.73393  1.0000
  O   O2858     1.0  0.83293  0.64337  0.76607  1.0000
  O   O2859     1.0  0.83293  0.52330  0.76607  1.0000
  O   O2860     1.0  0.79583  0.35810  0.93360  1.0000
  O   O2861     1.0  0.87083  0.64190  0.73307  1.0000
  O   O2862     1.0  0.96250  0.47523  0.89973  1.0000
  O   O2863     1.0  0.87083  0.52477  0.73307  1.0000
  O   O2864     1.0  0.96250  0.35810  0.89973  1.0000
  O   O2865     1.0  0.79983  0.37887  0.87503  1.0000
  O   O2866     1.0  0.86683  0.62113  0.79163  1.0000
  O   O2867     1.0  0.96650  0.45447  0.95830  1.0000
  O   O2868     1.0  0.86683  0.54553  0.79163  1.0000
  O   O2869     1.0  0.96650  0.37887  0.95830  1.0000
  O   O2870     1.0  0.79907  0.33447  0.87753  1.0000
  O   O2871     1.0  0.86760  0.66553  0.78913  1.0000
  O   O2872     1.0  0.96573  0.49887  0.95580  1.0000
  O   O2873     1.0  0.86760  0.50113  0.78913  1.0000
  O   O2874     1.0  0.96573  0.33447  0.95580  1.0000
  O   O2875     1.0  0.89033  0.65383  0.67593  1.0000
  O   O2876     1.0  0.94300  0.48717  0.84260  1.0000
  O   O2877     1.0  0.89033  0.51283  0.67593  1.0000
  O   O2878     1.0  0.94300  0.34617  0.84260  1.0000
  O   O2879     1.0  0.89010  0.34817  0.72817  1.0000
  O   O2880     1.0  0.94323  0.51483  0.89483  1.0000
  O   O2881     1.0  0.89010  0.48517  0.72817  1.0000
  O   O2882     1.0  0.94323  0.65183  0.89483  1.0000
  O   O2883     1.0  0.91430  0.64457  0.72980  1.0000
  O   O2884     1.0  0.91903  0.47790  0.89647  1.0000
  O   O2885     1.0  0.91430  0.52210  0.72980  1.0000
  O   O2886     1.0  0.91903  0.35543  0.89647  1.0000
  O   O2887     1.0  0.90300  0.62347  0.96467  1.0000
  O   O2888     1.0  0.93033  0.45680  0.79800  1.0000
  O   O2889     1.0  0.90300  0.54320  0.96467  1.0000
  O   O2890     1.0  0.93033  0.37653  0.79800  1.0000
  O   O2891     1.0  0.93220  0.65150  0.99083  1.0000
  O   O2892     1.0  0.90113  0.48483  0.82417  1.0000
  O   O2893     1.0  0.93220  0.51517  0.99083  1.0000
  O   O2894     1.0  0.90113  0.34850  0.82417  1.0000
  O   O2895     1.0  0.90213  0.66633  0.94787  1.0000
  O   O2896     1.0  0.93120  0.49967  0.78120  1.0000
  O   O2897     1.0  0.90213  0.50033  0.94787  1.0000
  O   O2898     1.0  0.93120  0.33367  0.78120  1.0000
  O   O2899     1.0  0.96417  0.62450  0.97057  1.0000
  O   O2900     1.0  0.86917  0.45783  0.80390  1.0000
  O   O2901     1.0  0.96417  0.54217  0.97057  1.0000
  O   O2902     1.0  0.86917  0.37550  0.80390  1.0000
  O   O2903     1.0  0.80513  0.65433  0.81477  1.0000
  O   O2904     1.0  0.97180  0.65433  0.68523  1.0000
  O   O2905     1.0  0.86153  0.48767  0.85190  1.0000
  O   O2906     1.0  0.97180  0.51233  0.68523  1.0000
  O   O2907     1.0  0.86153  0.34567  0.85190  1.0000
  O   O2908     1.0  0.78997  0.64063  0.75567  1.0000
  O   O2909     1.0  0.95663  0.64063  0.74433  1.0000
  O   O2910     1.0  0.87670  0.47397  0.91100  1.0000
  O   O2911     1.0  0.95663  0.52603  0.74433  1.0000
  O   O2912     1.0  0.87670  0.35937  0.91100  1.0000
  O   O2913     1.0  0.80907  0.34703  0.76107  1.0000
  O   O2914     1.0  0.97573  0.34703  0.73893  1.0000
  O   O2915     1.0  0.85760  0.51370  0.90560  1.0000
  O   O2916     1.0  0.97573  0.48630  0.73893  1.0000
  O   O2917     1.0  0.85760  0.65297  0.90560  1.0000
  O   O2918     1.0  0.92663  0.62290  0.78480  1.0000
  O   O2919     1.0  0.90670  0.45623  0.95147  1.0000
  O   O2920     1.0  0.92663  0.54377  0.78480  1.0000
  O   O2921     1.0  0.90670  0.37710  0.95147  1.0000
  O   O2922     1.0  0.83037  0.61827  0.90563  1.0000
  O   O2923     1.0  0.83037  0.54840  0.90563  1.0000
  O   O2924     1.0  0.83630  0.38173  0.76103  1.0000
  O   O2925     1.0  0.99703  0.54840  0.92770  1.0000
  O   O2926     1.0  0.83630  0.45160  0.76103  1.0000
  O   O2927     1.0  0.99703  0.61827  0.92770  1.0000
  O   O2928     1.0  0.87730  0.38963  0.74190  1.0000
  O   O2929     1.0  0.95603  0.55630  0.90857  1.0000
  O   O2930     1.0  0.87730  0.44370  0.74190  1.0000
  O   O2931     1.0  0.95603  0.61037  0.90857  1.0000
  O   O2932     1.0  0.85790  0.41667  0.78563  1.0000
  O   O2933     1.0  0.97543  0.58333  0.95230  1.0000
  O   O2934     1.0  0.89277  0.37963  0.68130  1.0000
  O   O2935     1.0  0.94057  0.54630  0.84797  1.0000
  O   O2936     1.0  0.89277  0.45370  0.68130  1.0000
  O   O2937     1.0  0.94057  0.62037  0.84797  1.0000
  O   O2938     1.0  0.91967  0.38060  0.73367  1.0000
  O   O2939     1.0  0.91367  0.54727  0.90033  1.0000
  O   O2940     1.0  0.91967  0.45273  0.73367  1.0000
  O   O2941     1.0  0.91367  0.61940  0.90033  1.0000
  O   O2942     1.0  0.90190  0.41667  0.98070  1.0000
  O   O2943     1.0  0.93143  0.58333  0.81403  1.0000
  O   O2944     1.0  0.93413  0.38957  0.99990  1.0000
  O   O2945     1.0  0.89920  0.55623  0.83323  1.0000
  O   O2946     1.0  0.93413  0.44377  0.99990  1.0000
  O   O2947     1.0  0.89920  0.61043  0.83323  1.0000
  O   O2948     1.0  0.96840  0.41667  0.99317  1.0000
  O   O2949     1.0  0.86493  0.58333  0.82650  1.0000
  O   O2950     1.0  0.80637  0.37767  0.80917  1.0000
  O   O2951     1.0  0.97303  0.37767  0.69083  1.0000
  O   O2952     1.0  0.86030  0.54433  0.85750  1.0000
  O   O2953     1.0  0.97303  0.45567  0.69083  1.0000
  O   O2954     1.0  0.86030  0.62233  0.85750  1.0000
  O   O2955     1.0  0.79410  0.38767  0.74687  1.0000
  O   O2956     1.0  0.96077  0.38767  0.75313  1.0000
  O   O2957     1.0  0.87257  0.55433  0.91980  1.0000
  O   O2958     1.0  0.96077  0.44567  0.75313  1.0000
  O   O2959     1.0  0.87257  0.61233  0.91980  1.0000
  O   O2960     1.0  0.92947  0.41667  0.76957  1.0000
  O   O2961     1.0  0.90387  0.58333  0.93623  1.0000
  Si  Si1342    1.0  0.80713  0.35703  0.89660  1.0000
  Si  Si1343    1.0  0.85953  0.64297  0.77007  1.0000
  Si  Si1344    1.0  0.97380  0.47630  0.93673  1.0000
  Si  Si1345    1.0  0.85953  0.52370  0.77007  1.0000
  Si  Si1346    1.0  0.97380  0.35703  0.93673  1.0000
  Si  Si1347    1.0  0.89137  0.65547  0.71667  1.0000
  Si  Si1348    1.0  0.94197  0.48880  0.88333  1.0000
  Si  Si1349    1.0  0.89137  0.51120  0.71667  1.0000
  Si  Si1350    1.0  0.94197  0.34453  0.88333  1.0000
  Si  Si1351    1.0  0.90693  0.64880  0.97817  1.0000
  Si  Si1352    1.0  0.92640  0.48213  0.81150  1.0000
  Si  Si1353    1.0  0.90693  0.51787  0.97817  1.0000
  Si  Si1354    1.0  0.92640  0.35120  0.81150  1.0000
  Si  Si1355    1.0  0.95847  0.64953  0.98397  1.0000
  Si  Si1356    1.0  0.87487  0.48287  0.81730  1.0000
  Si  Si1357    1.0  0.95847  0.51713  0.98397  1.0000
  Si  Si1358    1.0  0.87487  0.35047  0.81730  1.0000
  Si  Si1359    1.0  0.80930  0.65467  0.77443  1.0000
  Si  Si1360    1.0  0.97597  0.65467  0.72557  1.0000
  Si  Si1361    1.0  0.85737  0.48800  0.89223  1.0000
  Si  Si1362    1.0  0.97597  0.51200  0.72557  1.0000
  Si  Si1363    1.0  0.85737  0.34533  0.89223  1.0000
  Si  Si1364    1.0  0.93220  0.64377  0.76010  1.0000
  Si  Si1365    1.0  0.90113  0.47710  0.92677  1.0000
  Si  Si1366    1.0  0.93220  0.52290  0.76010  1.0000
  Si  Si1367    1.0  0.90113  0.35623  0.92677  1.0000
  Al  Al25      1.0  0.86017  0.39087  0.77317  1.0000
  Si  Si1368    1.0  0.97317  0.55753  0.93983  1.0000
  Si  Si1369    1.0  0.86017  0.44247  0.77317  1.0000
  Si  Si1370    1.0  0.97317  0.60913  0.93983  1.0000
  Si  Si1371    1.0  0.89493  0.37450  0.72130  1.0000
  Si  Si1372    1.0  0.93840  0.54117  0.88797  1.0000
  Si  Si1373    1.0  0.89493  0.45883  0.72130  1.0000
  Si  Si1374    1.0  0.93840  0.62550  0.88797  1.0000
  Si  Si1375    1.0  0.90890  0.39073  0.98660  1.0000
  Si  Si1376    1.0  0.92443  0.55740  0.81993  1.0000
  Si  Si1377    1.0  0.90890  0.44260  0.98660  1.0000
  Si  Si1378    1.0  0.92443  0.60927  0.81993  1.0000
  Si  Si1379    1.0  0.96050  0.39070  0.99390  1.0000
  Si  Si1380    1.0  0.87283  0.55737  0.82723  1.0000
  Si  Si1381    1.0  0.96050  0.44263  0.99390  1.0000
  Si  Si1382    1.0  0.87283  0.60930  0.82723  1.0000
  Si  Si1383    1.0  0.81143  0.37353  0.76957  1.0000
  Si  Si1384    1.0  0.97810  0.37353  0.73043  1.0000
  Si  Si1385    1.0  0.85523  0.54020  0.89710  1.0000
  Si  Si1386    1.0  0.97810  0.45980  0.73043  1.0000
  Si  Si1387    1.0  0.85523  0.62647  0.89710  1.0000
  Si  Si1388    1.0  0.93510  0.39040  0.76360  1.0000
  Si  Si1389    1.0  0.89823  0.55707  0.93027  1.0000
  Si  Si1390    1.0  0.93510  0.44293  0.76360  1.0000
  Si  Si1391    1.0  0.89823  0.60960  0.93027  1.0000
  O   O2962     1.0  0.83373  0.68997  0.23393  1.0000
  O   O2963     1.0  0.99960  0.85663  0.06727  1.0000
  O   O2964     1.0  0.83373  0.81003  0.23393  1.0000
  O   O2965     1.0  0.99960  0.97670  0.06727  1.0000
  O   O2966     1.0  0.83293  0.97670  0.09940  1.0000
  O   O2967     1.0  0.66707  0.81003  0.26607  1.0000
  O   O2968     1.0  0.83293  0.85663  0.09940  1.0000
  O   O2969     1.0  0.79583  0.69143  0.26693  1.0000
  O   O2970     1.0  0.70417  0.85810  0.10027  1.0000
  O   O2971     1.0  0.79583  0.80857  0.26693  1.0000
  O   O2972     1.0  0.70417  0.97523  0.10027  1.0000
  O   O2973     1.0  0.87083  0.97523  0.06640  1.0000
  O   O2974     1.0  0.96250  0.80857  0.23307  1.0000
  O   O2975     1.0  0.87083  0.85810  0.06640  1.0000
  O   O2976     1.0  0.96250  0.69143  0.23307  1.0000
  O   O2977     1.0  0.79983  0.71220  0.20837  1.0000
  O   O2978     1.0  0.70017  0.87887  0.04170  1.0000
  O   O2979     1.0  0.79983  0.78780  0.20837  1.0000
  O   O2980     1.0  0.70017  0.95447  0.04170  1.0000
  O   O2981     1.0  0.86683  0.95447  0.12497  1.0000
  O   O2982     1.0  0.96650  0.78780  0.29163  1.0000
  O   O2983     1.0  0.86683  0.87887  0.12497  1.0000
  O   O2984     1.0  0.96650  0.71220  0.29163  1.0000
  O   O2985     1.0  0.79907  0.66780  0.21087  1.0000
  O   O2986     1.0  0.70093  0.83447  0.04420  1.0000
  O   O2987     1.0  0.79907  0.83220  0.21087  1.0000
  O   O2988     1.0  0.70093  0.99887  0.04420  1.0000
  O   O2989     1.0  0.86760  0.99887  0.12247  1.0000
  O   O2990     1.0  0.96573  0.83220  0.28913  1.0000
  O   O2991     1.0  0.86760  0.83447  0.12247  1.0000
  O   O2992     1.0  0.96573  0.66780  0.28913  1.0000
  O   O2993     1.0  0.72367  0.84617  0.15740  1.0000
  O   O2994     1.0  0.77633  0.82050  0.32407  1.0000
  O   O2995     1.0  0.72367  0.98717  0.15740  1.0000
  O   O2996     1.0  0.89033  0.98717  0.00927  1.0000
  O   O2997     1.0  0.94300  0.82050  0.17593  1.0000
  O   O2998     1.0  0.89033  0.84617  0.00927  1.0000
  O   O2999     1.0  0.94300  0.67950  0.17593  1.0000
  O   O3000     1.0  0.77657  0.98517  0.27183  1.0000
  O   O3001     1.0  0.72343  0.81850  0.10517  1.0000
  O   O3002     1.0  0.77657  0.84817  0.27183  1.0000
  O   O3003     1.0  0.89010  0.68150  0.06150  1.0000
  O   O3004     1.0  0.94323  0.84817  0.22817  1.0000
  O   O3005     1.0  0.89010  0.81850  0.06150  1.0000
  O   O3006     1.0  0.94323  0.98517  0.22817  1.0000
  O   O3007     1.0  0.74763  0.85543  0.10353  1.0000
  O   O3008     1.0  0.75237  0.81123  0.27020  1.0000
  O   O3009     1.0  0.74763  0.97790  0.10353  1.0000
  O   O3010     1.0  0.91430  0.97790  0.06313  1.0000
  O   O3011     1.0  0.91903  0.81123  0.22980  1.0000
  O   O3012     1.0  0.91430  0.85543  0.06313  1.0000
  O   O3013     1.0  0.91903  0.68877  0.22980  1.0000
  O   O3014     1.0  0.76367  0.70987  0.03533  1.0000
  O   O3015     1.0  0.73633  0.87653  0.20200  1.0000
  O   O3016     1.0  0.76367  0.79013  0.03533  1.0000
  O   O3017     1.0  0.73633  0.95680  0.20200  1.0000
  O   O3018     1.0  0.90300  0.95680  0.29800  1.0000
  O   O3019     1.0  0.93033  0.79013  0.13133  1.0000
  O   O3020     1.0  0.90300  0.87653  0.29800  1.0000
  O   O3021     1.0  0.93033  0.70987  0.13133  1.0000
  O   O3022     1.0  0.76553  0.84850  0.17583  1.0000
  O   O3023     1.0  0.73447  0.81817  0.00917  1.0000
  O   O3024     1.0  0.76553  0.98483  0.17583  1.0000
  O   O3025     1.0  0.93220  0.98483  0.32417  1.0000
  O   O3026     1.0  0.90113  0.81817  0.15750  1.0000
  O   O3027     1.0  0.93220  0.84850  0.32417  1.0000
  O   O3028     1.0  0.90113  0.68183  0.15750  1.0000
  O   O3029     1.0  0.73547  0.83367  0.21880  1.0000
  O   O3030     1.0  0.76453  0.83300  0.05213  1.0000
  O   O3031     1.0  0.73547  0.99967  0.21880  1.0000
  O   O3032     1.0  0.90213  0.99967  0.28120  1.0000
  O   O3033     1.0  0.93120  0.83300  0.11453  1.0000
  O   O3034     1.0  0.90213  0.83367  0.28120  1.0000
  O   O3035     1.0  0.93120  0.66700  0.11453  1.0000
  O   O3036     1.0  0.79750  0.87550  0.19610  1.0000
  O   O3037     1.0  0.70250  0.79117  0.02943  1.0000
  O   O3038     1.0  0.79750  0.95783  0.19610  1.0000
  O   O3039     1.0  0.96417  0.95783  0.30390  1.0000
  O   O3040     1.0  0.86917  0.79117  0.13723  1.0000
  O   O3041     1.0  0.96417  0.87550  0.30390  1.0000
  O   O3042     1.0  0.86917  0.70883  0.13723  1.0000
  O   O3043     1.0  0.80513  0.84567  0.14810  1.0000
  O   O3044     1.0  0.69487  0.82100  0.31477  1.0000
  O   O3045     1.0  0.80513  0.98767  0.14810  1.0000
  O   O3046     1.0  0.97180  0.98767  0.01857  1.0000
  O   O3047     1.0  0.86153  0.82100  0.18523  1.0000
  O   O3048     1.0  0.97180  0.84567  0.01857  1.0000
  O   O3049     1.0  0.86153  0.67900  0.18523  1.0000
  O   O3050     1.0  0.78997  0.85937  0.08900  1.0000
  O   O3051     1.0  0.71003  0.80730  0.25567  1.0000
  O   O3052     1.0  0.78997  0.97397  0.08900  1.0000
  O   O3053     1.0  0.95663  0.97397  0.07767  1.0000
  O   O3054     1.0  0.87670  0.80730  0.24433  1.0000
  O   O3055     1.0  0.95663  0.85937  0.07767  1.0000
  O   O3056     1.0  0.87670  0.69270  0.24433  1.0000
  O   O3057     1.0  0.69093  0.98630  0.26107  1.0000
  O   O3058     1.0  0.80907  0.81963  0.09440  1.0000
  O   O3059     1.0  0.69093  0.84703  0.26107  1.0000
  O   O3060     1.0  0.80907  0.68037  0.09440  1.0000
  O   O3061     1.0  0.97573  0.68037  0.07227  1.0000
  O   O3062     1.0  0.85760  0.84703  0.23893  1.0000
  O   O3063     1.0  0.97573  0.81963  0.07227  1.0000
  O   O3064     1.0  0.85760  0.98630  0.23893  1.0000
  O   O3065     1.0  0.75997  0.87710  0.04853  1.0000
  O   O3066     1.0  0.74003  0.78957  0.21520  1.0000
  O   O3067     1.0  0.75997  0.95623  0.04853  1.0000
  O   O3068     1.0  0.92663  0.95623  0.11813  1.0000
  O   O3069     1.0  0.90670  0.78957  0.28480  1.0000
  O   O3070     1.0  0.92663  0.87710  0.11813  1.0000
  O   O3071     1.0  0.90670  0.71043  0.28480  1.0000
  O   O3072     1.0  0.83037  0.95160  0.23897  1.0000
  O   O3073     1.0  0.66963  0.78493  0.07230  1.0000
  O   O3074     1.0  0.83037  0.88173  0.23897  1.0000
  O   O3075     1.0  0.83630  0.71507  0.09437  1.0000
  O   O3076     1.0  0.99703  0.88173  0.26103  1.0000
  O   O3077     1.0  0.83630  0.78493  0.09437  1.0000
  O   O3078     1.0  0.99703  0.95160  0.26103  1.0000
  O   O3079     1.0  0.78937  0.94370  0.25810  1.0000
  O   O3080     1.0  0.71063  0.77703  0.09143  1.0000
  O   O3081     1.0  0.78937  0.88963  0.25810  1.0000
  O   O3082     1.0  0.87730  0.72297  0.07523  1.0000
  O   O3083     1.0  0.95603  0.88963  0.24190  1.0000
  O   O3084     1.0  0.87730  0.77703  0.07523  1.0000
  O   O3085     1.0  0.95603  0.94370  0.24190  1.0000
  O   O3086     1.0  0.80877  0.91667  0.21437  1.0000
  O   O3087     1.0  0.69123  0.75000  0.04770  1.0000
  O   O3088     1.0  0.85790  0.75000  0.11897  1.0000
  O   O3089     1.0  0.97543  0.91667  0.28563  1.0000
  O   O3090     1.0  0.77390  0.95370  0.31870  1.0000
  O   O3091     1.0  0.72610  0.78703  0.15203  1.0000
  O   O3092     1.0  0.77390  0.87963  0.31870  1.0000
  O   O3093     1.0  0.89277  0.71297  0.01463  1.0000
  O   O3094     1.0  0.94057  0.87963  0.18130  1.0000
  O   O3095     1.0  0.89277  0.78703  0.01463  1.0000
  O   O3096     1.0  0.94057  0.95370  0.18130  1.0000
  O   O3097     1.0  0.74700  0.95273  0.26633  1.0000
  O   O3098     1.0  0.75300  0.78607  0.09967  1.0000
  O   O3099     1.0  0.74700  0.88060  0.26633  1.0000
  O   O3100     1.0  0.75300  0.71393  0.09967  1.0000
  O   O3101     1.0  0.91967  0.71393  0.06700  1.0000
  O   O3102     1.0  0.91367  0.88060  0.23367  1.0000
  O   O3103     1.0  0.91967  0.78607  0.06700  1.0000
  O   O3104     1.0  0.91367  0.95273  0.23367  1.0000
  O   O3105     1.0  0.76477  0.91667  0.01930  1.0000
  O   O3106     1.0  0.73523  0.75000  0.18597  1.0000
  O   O3107     1.0  0.90190  0.75000  0.31403  1.0000
  O   O3108     1.0  0.93143  0.91667  0.14737  1.0000
  O   O3109     1.0  0.73253  0.94377  0.00010  1.0000
  O   O3110     1.0  0.76747  0.77710  0.16677  1.0000
  O   O3111     1.0  0.73253  0.88957  0.00010  1.0000
  O   O3112     1.0  0.76747  0.72290  0.16677  1.0000
  O   O3113     1.0  0.93413  0.72290  0.33323  1.0000
  O   O3114     1.0  0.89920  0.88957  0.16657  1.0000
  O   O3115     1.0  0.93413  0.77710  0.33323  1.0000
  O   O3116     1.0  0.89920  0.94377  0.16657  1.0000
  O   O3117     1.0  0.69827  0.91667  0.00683  1.0000
  O   O3118     1.0  0.80173  0.75000  0.17350  1.0000
  O   O3119     1.0  0.96840  0.75000  0.32650  1.0000
  O   O3120     1.0  0.86493  0.91667  0.15983  1.0000
  O   O3121     1.0  0.69363  0.95567  0.30917  1.0000
  O   O3122     1.0  0.80637  0.78900  0.14250  1.0000
  O   O3123     1.0  0.69363  0.87767  0.30917  1.0000
  O   O3124     1.0  0.80637  0.71100  0.14250  1.0000
  O   O3125     1.0  0.97303  0.71100  0.02417  1.0000
  O   O3126     1.0  0.86030  0.87767  0.19083  1.0000
  O   O3127     1.0  0.97303  0.78900  0.02417  1.0000
  O   O3128     1.0  0.86030  0.95567  0.19083  1.0000
  O   O3129     1.0  0.70590  0.94567  0.24687  1.0000
  O   O3130     1.0  0.79410  0.77900  0.08020  1.0000
  O   O3131     1.0  0.70590  0.88767  0.24687  1.0000
  O   O3132     1.0  0.79410  0.72100  0.08020  1.0000
  O   O3133     1.0  0.96077  0.72100  0.08647  1.0000
  O   O3134     1.0  0.87257  0.88767  0.25313  1.0000
  O   O3135     1.0  0.96077  0.77900  0.08647  1.0000
  O   O3136     1.0  0.87257  0.94567  0.25313  1.0000
  O   O3137     1.0  0.73720  0.91667  0.23043  1.0000
  O   O3138     1.0  0.76280  0.75000  0.06377  1.0000
  O   O3139     1.0  0.92947  0.75000  0.10290  1.0000
  O   O3140     1.0  0.90387  0.91667  0.26957  1.0000
  Si  Si1392    1.0  0.80713  0.69037  0.22993  1.0000
  Si  Si1393    1.0  0.69287  0.85703  0.06327  1.0000
  Si  Si1394    1.0  0.80713  0.80963  0.22993  1.0000
  Si  Si1395    1.0  0.69287  0.97630  0.06327  1.0000
  Si  Si1396    1.0  0.85953  0.97630  0.10340  1.0000
  Si  Si1397    1.0  0.97380  0.80963  0.27007  1.0000
  Al  Al26      1.0  0.85953  0.85703  0.10340  1.0000
  Si  Si1398    1.0  0.97380  0.69037  0.27007  1.0000
  Si  Si1399    1.0  0.72470  0.84453  0.11667  1.0000
  Si  Si1400    1.0  0.77530  0.82213  0.28333  1.0000
  Si  Si1401    1.0  0.72470  0.98880  0.11667  1.0000
  Si  Si1402    1.0  0.89137  0.98880  0.05000  1.0000
  Si  Si1403    1.0  0.94197  0.82213  0.21667  1.0000
  Si  Si1404    1.0  0.89137  0.84453  0.05000  1.0000
  Si  Si1405    1.0  0.94197  0.67787  0.21667  1.0000
  Si  Si1406    1.0  0.74027  0.85120  0.18850  1.0000
  Si  Si1407    1.0  0.75973  0.81547  0.02183  1.0000
  Si  Si1408    1.0  0.74027  0.98213  0.18850  1.0000
  Si  Si1409    1.0  0.90693  0.98213  0.31150  1.0000
  Si  Si1410    1.0  0.92640  0.81547  0.14483  1.0000
  Si  Si1411    1.0  0.90693  0.85120  0.31150  1.0000
  Al  Al27      1.0  0.92640  0.68453  0.14483  1.0000
  Si  Si1412    1.0  0.79180  0.85047  0.18270  1.0000
  Si  Si1413    1.0  0.70820  0.81620  0.01603  1.0000
  Si  Si1414    1.0  0.79180  0.98287  0.18270  1.0000
  Si  Si1415    1.0  0.95847  0.98287  0.31730  1.0000
  Si  Si1416    1.0  0.87487  0.81620  0.15063  1.0000
  Si  Si1417    1.0  0.95847  0.85047  0.31730  1.0000
  Si  Si1418    1.0  0.87487  0.68380  0.15063  1.0000
  Si  Si1419    1.0  0.80930  0.84533  0.10777  1.0000
  Si  Si1420    1.0  0.69070  0.82133  0.27443  1.0000
  Si  Si1421    1.0  0.80930  0.98800  0.10777  1.0000
  Si  Si1422    1.0  0.97597  0.98800  0.05890  1.0000
  Si  Si1423    1.0  0.85737  0.82133  0.22557  1.0000
  Si  Si1424    1.0  0.97597  0.84533  0.05890  1.0000
  Si  Si1425    1.0  0.85737  0.67867  0.22557  1.0000
  Si  Si1426    1.0  0.76553  0.85623  0.07323  1.0000
  Si  Si1427    1.0  0.73447  0.81043  0.23990  1.0000
  Si  Si1428    1.0  0.76553  0.97710  0.07323  1.0000
  Si  Si1429    1.0  0.93220  0.97710  0.09343  1.0000
  Si  Si1430    1.0  0.90113  0.81043  0.26010  1.0000
  Si  Si1431    1.0  0.93220  0.85623  0.09343  1.0000
  Si  Si1432    1.0  0.90113  0.68957  0.26010  1.0000
  Si  Si1433    1.0  0.80650  0.94247  0.22683  1.0000
  Si  Si1434    1.0  0.69350  0.77580  0.06017  1.0000
  Si  Si1435    1.0  0.80650  0.89087  0.22683  1.0000
  Si  Si1436    1.0  0.86017  0.72420  0.10650  1.0000
  Si  Si1437    1.0  0.97317  0.89087  0.27317  1.0000
  Si  Si1438    1.0  0.86017  0.77580  0.10650  1.0000
  Si  Si1439    1.0  0.97317  0.94247  0.27317  1.0000
  Si  Si1440    1.0  0.77173  0.95883  0.27870  1.0000
  Si  Si1441    1.0  0.72827  0.79217  0.11203  1.0000
  Si  Si1442    1.0  0.77173  0.87450  0.27870  1.0000
  Si  Si1443    1.0  0.89493  0.70783  0.05463  1.0000
  Si  Si1444    1.0  0.93840  0.87450  0.22130  1.0000
  Si  Si1445    1.0  0.89493  0.79217  0.05463  1.0000
  Si  Si1446    1.0  0.93840  0.95883  0.22130  1.0000
  Si  Si1447    1.0  0.75777  0.94260  0.01340  1.0000
  Si  Si1448    1.0  0.74223  0.77593  0.18007  1.0000
  Si  Si1449    1.0  0.75777  0.89073  0.01340  1.0000
  Si  Si1450    1.0  0.90890  0.72407  0.31993  1.0000
  Si  Si1451    1.0  0.92443  0.89073  0.15327  1.0000
  Si  Si1452    1.0  0.90890  0.77593  0.31993  1.0000
  Si  Si1453    1.0  0.92443  0.94260  0.15327  1.0000
  Si  Si1454    1.0  0.70617  0.94263  0.00610  1.0000
  Si  Si1455    1.0  0.79383  0.77597  0.17277  1.0000
  Si  Si1456    1.0  0.70617  0.89070  0.00610  1.0000
  Si  Si1457    1.0  0.79383  0.72403  0.17277  1.0000
  Si  Si1458    1.0  0.96050  0.72403  0.32723  1.0000
  Si  Si1459    1.0  0.87283  0.89070  0.16057  1.0000
  Si  Si1460    1.0  0.96050  0.77597  0.32723  1.0000
  Si  Si1461    1.0  0.87283  0.94263  0.16057  1.0000
  Si  Si1462    1.0  0.68857  0.95980  0.26957  1.0000
  Si  Si1463    1.0  0.81143  0.79313  0.10290  1.0000
  Si  Si1464    1.0  0.68857  0.87353  0.26957  1.0000
  Si  Si1465    1.0  0.81143  0.70687  0.10290  1.0000
  Si  Si1466    1.0  0.97810  0.70687  0.06377  1.0000
  Si  Si1467    1.0  0.85523  0.87353  0.23043  1.0000
  Si  Si1468    1.0  0.97810  0.79313  0.06377  1.0000
  Si  Si1469    1.0  0.85523  0.95980  0.23043  1.0000
  Si  Si1470    1.0  0.73157  0.94293  0.23640  1.0000
  Si  Si1471    1.0  0.76843  0.77627  0.06973  1.0000
  Si  Si1472    1.0  0.73157  0.89040  0.23640  1.0000
  Si  Si1473    1.0  0.76843  0.72373  0.06973  1.0000
  Si  Si1474    1.0  0.93510  0.72373  0.09693  1.0000
  Al  Al28      1.0  0.89823  0.89040  0.26360  1.0000
  Si  Si1475    1.0  0.93510  0.77627  0.09693  1.0000
  Si  Si1476    1.0  0.89823  0.94293  0.26360  1.0000
  O   O3141     1.0  0.83373  0.68997  0.56727  1.0000
  O   O3142     1.0  0.99960  0.85663  0.40060  1.0000
  O   O3143     1.0  0.83373  0.81003  0.56727  1.0000
  O   O3144     1.0  0.99960  0.97670  0.40060  1.0000
  O   O3145     1.0  0.83293  0.97670  0.43273  1.0000
  O   O3146     1.0  0.66707  0.81003  0.59940  1.0000
  O   O3147     1.0  0.83293  0.85663  0.43273  1.0000
  O   O3148     1.0  0.79583  0.69143  0.60027  1.0000
  O   O3149     1.0  0.70417  0.85810  0.43360  1.0000
  O   O3150     1.0  0.79583  0.80857  0.60027  1.0000
  O   O3151     1.0  0.70417  0.97523  0.43360  1.0000
  O   O3152     1.0  0.87083  0.97523  0.39973  1.0000
  O   O3153     1.0  0.96250  0.80857  0.56640  1.0000
  O   O3154     1.0  0.87083  0.85810  0.39973  1.0000
  O   O3155     1.0  0.96250  0.69143  0.56640  1.0000
  O   O3156     1.0  0.79983  0.71220  0.54170  1.0000
  O   O3157     1.0  0.70017  0.87887  0.37503  1.0000
  O   O3158     1.0  0.79983  0.78780  0.54170  1.0000
  O   O3159     1.0  0.70017  0.95447  0.37503  1.0000
  O   O3160     1.0  0.86683  0.95447  0.45830  1.0000
  O   O3161     1.0  0.96650  0.78780  0.62497  1.0000
  O   O3162     1.0  0.86683  0.87887  0.45830  1.0000
  O   O3163     1.0  0.96650  0.71220  0.62497  1.0000
  O   O3164     1.0  0.79907  0.66780  0.54420  1.0000
  O   O3165     1.0  0.70093  0.83447  0.37753  1.0000
  O   O3166     1.0  0.79907  0.83220  0.54420  1.0000
  O   O3167     1.0  0.70093  0.99887  0.37753  1.0000
  O   O3168     1.0  0.86760  0.99887  0.45580  1.0000
  O   O3169     1.0  0.96573  0.83220  0.62247  1.0000
  O   O3170     1.0  0.86760  0.83447  0.45580  1.0000
  O   O3171     1.0  0.96573  0.66780  0.62247  1.0000
  O   O3172     1.0  0.72367  0.84617  0.49073  1.0000
  O   O3173     1.0  0.77633  0.82050  0.65740  1.0000
  O   O3174     1.0  0.72367  0.98717  0.49073  1.0000
  O   O3175     1.0  0.89033  0.98717  0.34260  1.0000
  O   O3176     1.0  0.94300  0.82050  0.50927  1.0000
  O   O3177     1.0  0.89033  0.84617  0.34260  1.0000
  O   O3178     1.0  0.94300  0.67950  0.50927  1.0000
  O   O3179     1.0  0.77657  0.98517  0.60517  1.0000
  O   O3180     1.0  0.72343  0.81850  0.43850  1.0000
  O   O3181     1.0  0.77657  0.84817  0.60517  1.0000
  O   O3182     1.0  0.89010  0.68150  0.39483  1.0000
  O   O3183     1.0  0.94323  0.84817  0.56150  1.0000
  O   O3184     1.0  0.89010  0.81850  0.39483  1.0000
  O   O3185     1.0  0.94323  0.98517  0.56150  1.0000
  O   O3186     1.0  0.74763  0.85543  0.43687  1.0000
  O   O3187     1.0  0.75237  0.81123  0.60353  1.0000
  O   O3188     1.0  0.74763  0.97790  0.43687  1.0000
  O   O3189     1.0  0.91430  0.97790  0.39647  1.0000
  O   O3190     1.0  0.91903  0.81123  0.56313  1.0000
  O   O3191     1.0  0.91430  0.85543  0.39647  1.0000
  O   O3192     1.0  0.91903  0.68877  0.56313  1.0000
  O   O3193     1.0  0.76367  0.70987  0.36867  1.0000
  O   O3194     1.0  0.73633  0.87653  0.53533  1.0000
  O   O3195     1.0  0.76367  0.79013  0.36867  1.0000
  O   O3196     1.0  0.73633  0.95680  0.53533  1.0000
  O   O3197     1.0  0.90300  0.95680  0.63133  1.0000
  O   O3198     1.0  0.93033  0.79013  0.46467  1.0000
  O   O3199     1.0  0.90300  0.87653  0.63133  1.0000
  O   O3200     1.0  0.93033  0.70987  0.46467  1.0000
  O   O3201     1.0  0.76553  0.84850  0.50917  1.0000
  O   O3202     1.0  0.73447  0.81817  0.34250  1.0000
  O   O3203     1.0  0.76553  0.98483  0.50917  1.0000
  O   O3204     1.0  0.93220  0.98483  0.65750  1.0000
  O   O3205     1.0  0.90113  0.81817  0.49083  1.0000
  O   O3206     1.0  0.93220  0.84850  0.65750  1.0000
  O   O3207     1.0  0.90113  0.68183  0.49083  1.0000
  O   O3208     1.0  0.73547  0.83367  0.55213  1.0000
  O   O3209     1.0  0.76453  0.83300  0.38547  1.0000
  O   O3210     1.0  0.73547  0.99967  0.55213  1.0000
  O   O3211     1.0  0.90213  0.99967  0.61453  1.0000
  O   O3212     1.0  0.93120  0.83300  0.44787  1.0000
  O   O3213     1.0  0.90213  0.83367  0.61453  1.0000
  O   O3214     1.0  0.93120  0.66700  0.44787  1.0000
  O   O3215     1.0  0.79750  0.87550  0.52943  1.0000
  O   O3216     1.0  0.70250  0.79117  0.36277  1.0000
  O   O3217     1.0  0.79750  0.95783  0.52943  1.0000
  O   O3218     1.0  0.96417  0.95783  0.63723  1.0000
  O   O3219     1.0  0.86917  0.79117  0.47057  1.0000
  O   O3220     1.0  0.96417  0.87550  0.63723  1.0000
  O   O3221     1.0  0.86917  0.70883  0.47057  1.0000
  O   O3222     1.0  0.80513  0.84567  0.48143  1.0000
  O   O3223     1.0  0.69487  0.82100  0.64810  1.0000
  O   O3224     1.0  0.80513  0.98767  0.48143  1.0000
  O   O3225     1.0  0.97180  0.98767  0.35190  1.0000
  O   O3226     1.0  0.86153  0.82100  0.51857  1.0000
  O   O3227     1.0  0.97180  0.84567  0.35190  1.0000
  O   O3228     1.0  0.86153  0.67900  0.51857  1.0000
  O   O3229     1.0  0.78997  0.85937  0.42233  1.0000
  O   O3230     1.0  0.71003  0.80730  0.58900  1.0000
  O   O3231     1.0  0.78997  0.97397  0.42233  1.0000
  O   O3232     1.0  0.95663  0.97397  0.41100  1.0000
  O   O3233     1.0  0.87670  0.80730  0.57767  1.0000
  O   O3234     1.0  0.95663  0.85937  0.41100  1.0000
  O   O3235     1.0  0.87670  0.69270  0.57767  1.0000
  O   O3236     1.0  0.69093  0.98630  0.59440  1.0000
  O   O3237     1.0  0.80907  0.81963  0.42773  1.0000
  O   O3238     1.0  0.69093  0.84703  0.59440  1.0000
  O   O3239     1.0  0.80907  0.68037  0.42773  1.0000
  O   O3240     1.0  0.97573  0.68037  0.40560  1.0000
  O   O3241     1.0  0.85760  0.84703  0.57227  1.0000
  O   O3242     1.0  0.97573  0.81963  0.40560  1.0000
  O   O3243     1.0  0.85760  0.98630  0.57227  1.0000
  O   O3244     1.0  0.75997  0.87710  0.38187  1.0000
  O   O3245     1.0  0.74003  0.78957  0.54853  1.0000
  O   O3246     1.0  0.75997  0.95623  0.38187  1.0000
  O   O3247     1.0  0.92663  0.95623  0.45147  1.0000
  O   O3248     1.0  0.90670  0.78957  0.61813  1.0000
  O   O3249     1.0  0.92663  0.87710  0.45147  1.0000
  O   O3250     1.0  0.90670  0.71043  0.61813  1.0000
  O   O3251     1.0  0.83037  0.95160  0.57230  1.0000
  O   O3252     1.0  0.66963  0.78493  0.40563  1.0000
  O   O3253     1.0  0.83037  0.88173  0.57230  1.0000
  O   O3254     1.0  0.83630  0.71507  0.42770  1.0000
  O   O3255     1.0  0.99703  0.88173  0.59437  1.0000
  O   O3256     1.0  0.83630  0.78493  0.42770  1.0000
  O   O3257     1.0  0.99703  0.95160  0.59437  1.0000
  O   O3258     1.0  0.78937  0.94370  0.59143  1.0000
  O   O3259     1.0  0.71063  0.77703  0.42477  1.0000
  O   O3260     1.0  0.78937  0.88963  0.59143  1.0000
  O   O3261     1.0  0.87730  0.72297  0.40857  1.0000
  O   O3262     1.0  0.95603  0.88963  0.57523  1.0000
  O   O3263     1.0  0.87730  0.77703  0.40857  1.0000
  O   O3264     1.0  0.95603  0.94370  0.57523  1.0000
  O   O3265     1.0  0.80877  0.91667  0.54770  1.0000
  O   O3266     1.0  0.69123  0.75000  0.38103  1.0000
  O   O3267     1.0  0.85790  0.75000  0.45230  1.0000
  O   O3268     1.0  0.97543  0.91667  0.61897  1.0000
  O   O3269     1.0  0.77390  0.95370  0.65203  1.0000
  O   O3270     1.0  0.72610  0.78703  0.48537  1.0000
  O   O3271     1.0  0.77390  0.87963  0.65203  1.0000
  O   O3272     1.0  0.89277  0.71297  0.34797  1.0000
  O   O3273     1.0  0.94057  0.87963  0.51463  1.0000
  O   O3274     1.0  0.89277  0.78703  0.34797  1.0000
  O   O3275     1.0  0.94057  0.95370  0.51463  1.0000
  O   O3276     1.0  0.74700  0.95273  0.59967  1.0000
  O   O3277     1.0  0.75300  0.78607  0.43300  1.0000
  O   O3278     1.0  0.74700  0.88060  0.59967  1.0000
  O   O3279     1.0  0.75300  0.71393  0.43300  1.0000
  O   O3280     1.0  0.91967  0.71393  0.40033  1.0000
  O   O3281     1.0  0.91367  0.88060  0.56700  1.0000
  O   O3282     1.0  0.91967  0.78607  0.40033  1.0000
  O   O3283     1.0  0.91367  0.95273  0.56700  1.0000
  O   O3284     1.0  0.76477  0.91667  0.35263  1.0000
  O   O3285     1.0  0.73523  0.75000  0.51930  1.0000
  O   O3286     1.0  0.90190  0.75000  0.64737  1.0000
  O   O3287     1.0  0.93143  0.91667  0.48070  1.0000
  O   O3288     1.0  0.73253  0.94377  0.33343  1.0000
  O   O3289     1.0  0.76747  0.77710  0.50010  1.0000
  O   O3290     1.0  0.73253  0.88957  0.33343  1.0000
  O   O3291     1.0  0.76747  0.72290  0.50010  1.0000
  O   O3292     1.0  0.93413  0.72290  0.66657  1.0000
  O   O3293     1.0  0.89920  0.88957  0.49990  1.0000
  O   O3294     1.0  0.93413  0.77710  0.66657  1.0000
  O   O3295     1.0  0.89920  0.94377  0.49990  1.0000
  O   O3296     1.0  0.69827  0.91667  0.34017  1.0000
  O   O3297     1.0  0.80173  0.75000  0.50683  1.0000
  O   O3298     1.0  0.96840  0.75000  0.65983  1.0000
  O   O3299     1.0  0.86493  0.91667  0.49317  1.0000
  O   O3300     1.0  0.69363  0.95567  0.64250  1.0000
  O   O3301     1.0  0.80637  0.78900  0.47583  1.0000
  O   O3302     1.0  0.69363  0.87767  0.64250  1.0000
  O   O3303     1.0  0.80637  0.71100  0.47583  1.0000
  O   O3304     1.0  0.97303  0.71100  0.35750  1.0000
  O   O3305     1.0  0.86030  0.87767  0.52417  1.0000
  O   O3306     1.0  0.97303  0.78900  0.35750  1.0000
  O   O3307     1.0  0.86030  0.95567  0.52417  1.0000
  O   O3308     1.0  0.70590  0.94567  0.58020  1.0000
  O   O3309     1.0  0.79410  0.77900  0.41353  1.0000
  O   O3310     1.0  0.70590  0.88767  0.58020  1.0000
  O   O3311     1.0  0.79410  0.72100  0.41353  1.0000
  O   O3312     1.0  0.96077  0.72100  0.41980  1.0000
  O   O3313     1.0  0.87257  0.88767  0.58647  1.0000
  O   O3314     1.0  0.96077  0.77900  0.41980  1.0000
  O   O3315     1.0  0.87257  0.94567  0.58647  1.0000
  O   O3316     1.0  0.73720  0.91667  0.56377  1.0000
  O   O3317     1.0  0.76280  0.75000  0.39710  1.0000
  O   O3318     1.0  0.92947  0.75000  0.43623  1.0000
  O   O3319     1.0  0.90387  0.91667  0.60290  1.0000
  Si  Si1477    1.0  0.80713  0.69037  0.56327  1.0000
  Si  Si1478    1.0  0.69287  0.85703  0.39660  1.0000
  Si  Si1479    1.0  0.80713  0.80963  0.56327  1.0000
  Si  Si1480    1.0  0.69287  0.97630  0.39660  1.0000
  Si  Si1481    1.0  0.85953  0.97630  0.43673  1.0000
  Si  Si1482    1.0  0.97380  0.80963  0.60340  1.0000
  Si  Si1483    1.0  0.85953  0.85703  0.43673  1.0000
  Si  Si1484    1.0  0.97380  0.69037  0.60340  1.0000
  Si  Si1485    1.0  0.72470  0.84453  0.45000  1.0000
  Si  Si1486    1.0  0.77530  0.82213  0.61667  1.0000
  Si  Si1487    1.0  0.72470  0.98880  0.45000  1.0000
  Si  Si1488    1.0  0.89137  0.98880  0.38333  1.0000
  Si  Si1489    1.0  0.94197  0.82213  0.55000  1.0000
  Si  Si1490    1.0  0.89137  0.84453  0.38333  1.0000
  Si  Si1491    1.0  0.94197  0.67787  0.55000  1.0000
  Si  Si1492    1.0  0.74027  0.85120  0.52183  1.0000
  Si  Si1493    1.0  0.75973  0.81547  0.35517  1.0000
  Al  Al29      1.0  0.74027  0.98213  0.52183  1.0000
  Si  Si1494    1.0  0.90693  0.98213  0.64483  1.0000
  Si  Si1495    1.0  0.92640  0.81547  0.47817  1.0000
  Si  Si1496    1.0  0.90693  0.85120  0.64483  1.0000
  Si  Si1497    1.0  0.92640  0.68453  0.47817  1.0000
  Si  Si1498    1.0  0.79180  0.85047  0.51603  1.0000
  Si  Si1499    1.0  0.70820  0.81620  0.34937  1.0000
  Si  Si1500    1.0  0.79180  0.98287  0.51603  1.0000
  Si  Si1501    1.0  0.95847  0.98287  0.65063  1.0000
  Si  Si1502    1.0  0.87487  0.81620  0.48397  1.0000
  Si  Si1503    1.0  0.95847  0.85047  0.65063  1.0000
  Si  Si1504    1.0  0.87487  0.68380  0.48397  1.0000
  Si  Si1505    1.0  0.80930  0.84533  0.44110  1.0000
  Si  Si1506    1.0  0.69070  0.82133  0.60777  1.0000
  Si  Si1507    1.0  0.80930  0.98800  0.44110  1.0000
  Si  Si1508    1.0  0.97597  0.98800  0.39223  1.0000
  Si  Si1509    1.0  0.85737  0.82133  0.55890  1.0000
  Si  Si1510    1.0  0.97597  0.84533  0.39223  1.0000
  Si  Si1511    1.0  0.85737  0.67867  0.55890  1.0000
  Si  Si1512    1.0  0.76553  0.85623  0.40657  1.0000
  Si  Si1513    1.0  0.73447  0.81043  0.57323  1.0000
  Si  Si1514    1.0  0.76553  0.97710  0.40657  1.0000
  Si  Si1515    1.0  0.93220  0.97710  0.42677  1.0000
  Si  Si1516    1.0  0.90113  0.81043  0.59343  1.0000
  Si  Si1517    1.0  0.93220  0.85623  0.42677  1.0000
  Si  Si1518    1.0  0.90113  0.68957  0.59343  1.0000
  Si  Si1519    1.0  0.80650  0.94247  0.56017  1.0000
  Si  Si1520    1.0  0.69350  0.77580  0.39350  1.0000
  Si  Si1521    1.0  0.80650  0.89087  0.56017  1.0000
  Si  Si1522    1.0  0.86017  0.72420  0.43983  1.0000
  Si  Si1523    1.0  0.97317  0.89087  0.60650  1.0000
  Si  Si1524    1.0  0.86017  0.77580  0.43983  1.0000
  Si  Si1525    1.0  0.97317  0.94247  0.60650  1.0000
  Si  Si1526    1.0  0.77173  0.95883  0.61203  1.0000
  Si  Si1527    1.0  0.72827  0.79217  0.44537  1.0000
  Si  Si1528    1.0  0.77173  0.87450  0.61203  1.0000
  Al  Al30      1.0  0.89493  0.70783  0.38797  1.0000
  Si  Si1529    1.0  0.93840  0.87450  0.55463  1.0000
  Si  Si1530    1.0  0.89493  0.79217  0.38797  1.0000
  Si  Si1531    1.0  0.93840  0.95883  0.55463  1.0000
  Si  Si1532    1.0  0.75777  0.94260  0.34673  1.0000
  Si  Si1533    1.0  0.74223  0.77593  0.51340  1.0000
  Si  Si1534    1.0  0.75777  0.89073  0.34673  1.0000
  Si  Si1535    1.0  0.90890  0.72407  0.65327  1.0000
  Si  Si1536    1.0  0.92443  0.89073  0.48660  1.0000
  Si  Si1537    1.0  0.90890  0.77593  0.65327  1.0000
  Si  Si1538    1.0  0.92443  0.94260  0.48660  1.0000
  Si  Si1539    1.0  0.70617  0.94263  0.33943  1.0000
  Si  Si1540    1.0  0.79383  0.77597  0.50610  1.0000
  Si  Si1541    1.0  0.70617  0.89070  0.33943  1.0000
  Si  Si1542    1.0  0.79383  0.72403  0.50610  1.0000
  Si  Si1543    1.0  0.96050  0.72403  0.66057  1.0000
  Si  Si1544    1.0  0.87283  0.89070  0.49390  1.0000
  Si  Si1545    1.0  0.96050  0.77597  0.66057  1.0000
  Si  Si1546    1.0  0.87283  0.94263  0.49390  1.0000
  Si  Si1547    1.0  0.68857  0.95980  0.60290  1.0000
  Si  Si1548    1.0  0.81143  0.79313  0.43623  1.0000
  Si  Si1549    1.0  0.68857  0.87353  0.60290  1.0000
  Si  Si1550    1.0  0.81143  0.70687  0.43623  1.0000
  Si  Si1551    1.0  0.97810  0.70687  0.39710  1.0000
  Si  Si1552    1.0  0.85523  0.87353  0.56377  1.0000
  Si  Si1553    1.0  0.97810  0.79313  0.39710  1.0000
  Si  Si1554    1.0  0.85523  0.95980  0.56377  1.0000
  Si  Si1555    1.0  0.73157  0.94293  0.56973  1.0000
  Si  Si1556    1.0  0.76843  0.77627  0.40307  1.0000
  Si  Si1557    1.0  0.73157  0.89040  0.56973  1.0000
  Si  Si1558    1.0  0.76843  0.72373  0.40307  1.0000
  Si  Si1559    1.0  0.93510  0.72373  0.43027  1.0000
  Si  Si1560    1.0  0.89823  0.89040  0.59693  1.0000
  Si  Si1561    1.0  0.93510  0.77627  0.43027  1.0000
  Si  Si1562    1.0  0.89823  0.94293  0.59693  1.0000
  O   O3320     1.0  0.83373  0.68997  0.90060  1.0000
  O   O3321     1.0  0.99960  0.85663  0.73393  1.0000
  O   O3322     1.0  0.83373  0.81003  0.90060  1.0000
  O   O3323     1.0  0.99960  0.97670  0.73393  1.0000
  O   O3324     1.0  0.83293  0.97670  0.76607  1.0000
  O   O3325     1.0  0.66707  0.81003  0.93273  1.0000
  O   O3326     1.0  0.83293  0.85663  0.76607  1.0000
  O   O3327     1.0  0.79583  0.69143  0.93360  1.0000
  O   O3328     1.0  0.70417  0.85810  0.76693  1.0000
  O   O3329     1.0  0.79583  0.80857  0.93360  1.0000
  O   O3330     1.0  0.70417  0.97523  0.76693  1.0000
  O   O3331     1.0  0.87083  0.97523  0.73307  1.0000
  O   O3332     1.0  0.96250  0.80857  0.89973  1.0000
  O   O3333     1.0  0.87083  0.85810  0.73307  1.0000
  O   O3334     1.0  0.96250  0.69143  0.89973  1.0000
  O   O3335     1.0  0.79983  0.71220  0.87503  1.0000
  O   O3336     1.0  0.70017  0.87887  0.70837  1.0000
  O   O3337     1.0  0.79983  0.78780  0.87503  1.0000
  O   O3338     1.0  0.70017  0.95447  0.70837  1.0000
  O   O3339     1.0  0.86683  0.95447  0.79163  1.0000
  O   O3340     1.0  0.96650  0.78780  0.95830  1.0000
  O   O3341     1.0  0.86683  0.87887  0.79163  1.0000
  O   O3342     1.0  0.96650  0.71220  0.95830  1.0000
  O   O3343     1.0  0.79907  0.66780  0.87753  1.0000
  O   O3344     1.0  0.70093  0.83447  0.71087  1.0000
  O   O3345     1.0  0.79907  0.83220  0.87753  1.0000
  O   O3346     1.0  0.70093  0.99887  0.71087  1.0000
  O   O3347     1.0  0.86760  0.99887  0.78913  1.0000
  O   O3348     1.0  0.96573  0.83220  0.95580  1.0000
  O   O3349     1.0  0.86760  0.83447  0.78913  1.0000
  O   O3350     1.0  0.96573  0.66780  0.95580  1.0000
  O   O3351     1.0  0.72367  0.84617  0.82407  1.0000
  O   O3352     1.0  0.77633  0.82050  0.99073  1.0000
  O   O3353     1.0  0.72367  0.98717  0.82407  1.0000
  O   O3354     1.0  0.89033  0.98717  0.67593  1.0000
  O   O3355     1.0  0.94300  0.82050  0.84260  1.0000
  O   O3356     1.0  0.89033  0.84617  0.67593  1.0000
  O   O3357     1.0  0.94300  0.67950  0.84260  1.0000
  O   O3358     1.0  0.77657  0.98517  0.93850  1.0000
  O   O3359     1.0  0.72343  0.81850  0.77183  1.0000
  O   O3360     1.0  0.77657  0.84817  0.93850  1.0000
  O   O3361     1.0  0.89010  0.68150  0.72817  1.0000
  O   O3362     1.0  0.94323  0.84817  0.89483  1.0000
  O   O3363     1.0  0.89010  0.81850  0.72817  1.0000
  O   O3364     1.0  0.94323  0.98517  0.89483  1.0000
  O   O3365     1.0  0.74763  0.85543  0.77020  1.0000
  O   O3366     1.0  0.75237  0.81123  0.93687  1.0000
  O   O3367     1.0  0.74763  0.97790  0.77020  1.0000
  O   O3368     1.0  0.91430  0.97790  0.72980  1.0000
  O   O3369     1.0  0.91903  0.81123  0.89647  1.0000
  O   O3370     1.0  0.91430  0.85543  0.72980  1.0000
  O   O3371     1.0  0.91903  0.68877  0.89647  1.0000
  O   O3372     1.0  0.76367  0.70987  0.70200  1.0000
  O   O3373     1.0  0.73633  0.87653  0.86867  1.0000
  O   O3374     1.0  0.76367  0.79013  0.70200  1.0000
  O   O3375     1.0  0.73633  0.95680  0.86867  1.0000
  O   O3376     1.0  0.90300  0.95680  0.96467  1.0000
  O   O3377     1.0  0.93033  0.79013  0.79800  1.0000
  O   O3378     1.0  0.90300  0.87653  0.96467  1.0000
  O   O3379     1.0  0.93033  0.70987  0.79800  1.0000
  O   O3380     1.0  0.76553  0.84850  0.84250  1.0000
  O   O3381     1.0  0.73447  0.81817  0.67583  1.0000
  O   O3382     1.0  0.76553  0.98483  0.84250  1.0000
  O   O3383     1.0  0.93220  0.98483  0.99083  1.0000
  O   O3384     1.0  0.90113  0.81817  0.82417  1.0000
  O   O3385     1.0  0.93220  0.84850  0.99083  1.0000
  O   O3386     1.0  0.90113  0.68183  0.82417  1.0000
  O   O3387     1.0  0.73547  0.83367  0.88547  1.0000
  O   O3388     1.0  0.76453  0.83300  0.71880  1.0000
  O   O3389     1.0  0.73547  0.99967  0.88547  1.0000
  O   O3390     1.0  0.90213  0.99967  0.94787  1.0000
  O   O3391     1.0  0.93120  0.83300  0.78120  1.0000
  O   O3392     1.0  0.90213  0.83367  0.94787  1.0000
  O   O3393     1.0  0.93120  0.66700  0.78120  1.0000
  O   O3394     1.0  0.79750  0.87550  0.86277  1.0000
  O   O3395     1.0  0.70250  0.79117  0.69610  1.0000
  O   O3396     1.0  0.79750  0.95783  0.86277  1.0000
  O   O3397     1.0  0.96417  0.95783  0.97057  1.0000
  O   O3398     1.0  0.86917  0.79117  0.80390  1.0000
  O   O3399     1.0  0.96417  0.87550  0.97057  1.0000
  O   O3400     1.0  0.86917  0.70883  0.80390  1.0000
  O   O3401     1.0  0.80513  0.84567  0.81477  1.0000
  O   O3402     1.0  0.69487  0.82100  0.98143  1.0000
  O   O3403     1.0  0.80513  0.98767  0.81477  1.0000
  O   O3404     1.0  0.97180  0.98767  0.68523  1.0000
  O   O3405     1.0  0.86153  0.82100  0.85190  1.0000
  O   O3406     1.0  0.97180  0.84567  0.68523  1.0000
  O   O3407     1.0  0.86153  0.67900  0.85190  1.0000
  O   O3408     1.0  0.78997  0.85937  0.75567  1.0000
  O   O3409     1.0  0.71003  0.80730  0.92233  1.0000
  O   O3410     1.0  0.78997  0.97397  0.75567  1.0000
  O   O3411     1.0  0.95663  0.97397  0.74433  1.0000
  O   O3412     1.0  0.87670  0.80730  0.91100  1.0000
  O   O3413     1.0  0.95663  0.85937  0.74433  1.0000
  O   O3414     1.0  0.87670  0.69270  0.91100  1.0000
  O   O3415     1.0  0.69093  0.98630  0.92773  1.0000
  O   O3416     1.0  0.80907  0.81963  0.76107  1.0000
  O   O3417     1.0  0.69093  0.84703  0.92773  1.0000
  O   O3418     1.0  0.80907  0.68037  0.76107  1.0000
  O   O3419     1.0  0.97573  0.68037  0.73893  1.0000
  O   O3420     1.0  0.85760  0.84703  0.90560  1.0000
  O   O3421     1.0  0.97573  0.81963  0.73893  1.0000
  O   O3422     1.0  0.85760  0.98630  0.90560  1.0000
  O   O3423     1.0  0.75997  0.87710  0.71520  1.0000
  O   O3424     1.0  0.74003  0.78957  0.88187  1.0000
  O   O3425     1.0  0.75997  0.95623  0.71520  1.0000
  O   O3426     1.0  0.92663  0.95623  0.78480  1.0000
  O   O3427     1.0  0.90670  0.78957  0.95147  1.0000
  O   O3428     1.0  0.92663  0.87710  0.78480  1.0000
  O   O3429     1.0  0.90670  0.71043  0.95147  1.0000
  O   O3430     1.0  0.83037  0.95160  0.90563  1.0000
  O   O3431     1.0  0.66963  0.78493  0.73897  1.0000
  O   O3432     1.0  0.83037  0.88173  0.90563  1.0000
  O   O3433     1.0  0.83630  0.71507  0.76103  1.0000
  O   O3434     1.0  0.99703  0.88173  0.92770  1.0000
  O   O3435     1.0  0.83630  0.78493  0.76103  1.0000
  O   O3436     1.0  0.99703  0.95160  0.92770  1.0000
  O   O3437     1.0  0.78937  0.94370  0.92477  1.0000
  O   O3438     1.0  0.71063  0.77703  0.75810  1.0000
  O   O3439     1.0  0.78937  0.88963  0.92477  1.0000
  O   O3440     1.0  0.87730  0.72297  0.74190  1.0000
  O   O3441     1.0  0.95603  0.88963  0.90857  1.0000
  O   O3442     1.0  0.87730  0.77703  0.74190  1.0000
  O   O3443     1.0  0.95603  0.94370  0.90857  1.0000
  O   O3444     1.0  0.80877  0.91667  0.88103  1.0000
  O   O3445     1.0  0.69123  0.75000  0.71437  1.0000
  O   O3446     1.0  0.85790  0.75000  0.78563  1.0000
  O   O3447     1.0  0.97543  0.91667  0.95230  1.0000
  O   O3448     1.0  0.77390  0.95370  0.98537  1.0000
  O   O3449     1.0  0.72610  0.78703  0.81870  1.0000
  O   O3450     1.0  0.77390  0.87963  0.98537  1.0000
  O   O3451     1.0  0.89277  0.71297  0.68130  1.0000
  O   O3452     1.0  0.94057  0.87963  0.84797  1.0000
  O   O3453     1.0  0.89277  0.78703  0.68130  1.0000
  O   O3454     1.0  0.94057  0.95370  0.84797  1.0000
  O   O3455     1.0  0.74700  0.95273  0.93300  1.0000
  O   O3456     1.0  0.75300  0.78607  0.76633  1.0000
  O   O3457     1.0  0.74700  0.88060  0.93300  1.0000
  O   O3458     1.0  0.75300  0.71393  0.76633  1.0000
  O   O3459     1.0  0.91967  0.71393  0.73367  1.0000
  O   O3460     1.0  0.91367  0.88060  0.90033  1.0000
  O   O3461     1.0  0.91967  0.78607  0.73367  1.0000
  O   O3462     1.0  0.91367  0.95273  0.90033  1.0000
  O   O3463     1.0  0.76477  0.91667  0.68597  1.0000
  O   O3464     1.0  0.73523  0.75000  0.85263  1.0000
  O   O3465     1.0  0.90190  0.75000  0.98070  1.0000
  O   O3466     1.0  0.93143  0.91667  0.81403  1.0000
  O   O3467     1.0  0.73253  0.94377  0.66677  1.0000
  O   O3468     1.0  0.76747  0.77710  0.83343  1.0000
  O   O3469     1.0  0.73253  0.88957  0.66677  1.0000
  O   O3470     1.0  0.76747  0.72290  0.83343  1.0000
  O   O3471     1.0  0.93413  0.72290  0.99990  1.0000
  O   O3472     1.0  0.89920  0.88957  0.83323  1.0000
  O   O3473     1.0  0.93413  0.77710  0.99990  1.0000
  O   O3474     1.0  0.89920  0.94377  0.83323  1.0000
  O   O3475     1.0  0.69827  0.91667  0.67350  1.0000
  O   O3476     1.0  0.80173  0.75000  0.84017  1.0000
  O   O3477     1.0  0.96840  0.75000  0.99317  1.0000
  O   O3478     1.0  0.86493  0.91667  0.82650  1.0000
  O   O3479     1.0  0.69363  0.95567  0.97583  1.0000
  O   O3480     1.0  0.80637  0.78900  0.80917  1.0000
  O   O3481     1.0  0.69363  0.87767  0.97583  1.0000
  O   O3482     1.0  0.80637  0.71100  0.80917  1.0000
  O   O3483     1.0  0.97303  0.71100  0.69083  1.0000
  O   O3484     1.0  0.86030  0.87767  0.85750  1.0000
  O   O3485     1.0  0.97303  0.78900  0.69083  1.0000
  O   O3486     1.0  0.86030  0.95567  0.85750  1.0000
  O   O3487     1.0  0.70590  0.94567  0.91353  1.0000
  O   O3488     1.0  0.79410  0.77900  0.74687  1.0000
  O   O3489     1.0  0.70590  0.88767  0.91353  1.0000
  O   O3490     1.0  0.79410  0.72100  0.74687  1.0000
  O   O3491     1.0  0.96077  0.72100  0.75313  1.0000
  O   O3492     1.0  0.87257  0.88767  0.91980  1.0000
  O   O3493     1.0  0.96077  0.77900  0.75313  1.0000
  O   O3494     1.0  0.87257  0.94567  0.91980  1.0000
  O   O3495     1.0  0.73720  0.91667  0.89710  1.0000
  O   O3496     1.0  0.76280  0.75000  0.73043  1.0000
  O   O3497     1.0  0.92947  0.75000  0.76957  1.0000
  O   O3498     1.0  0.90387  0.91667  0.93623  1.0000
  Si  Si1563    1.0  0.80713  0.69037  0.89660  1.0000
  Si  Si1564    1.0  0.69287  0.85703  0.72993  1.0000
  Si  Si1565    1.0  0.80713  0.80963  0.89660  1.0000
  Si  Si1566    1.0  0.69287  0.97630  0.72993  1.0000
  Si  Si1567    1.0  0.85953  0.97630  0.77007  1.0000
  Si  Si1568    1.0  0.97380  0.80963  0.93673  1.0000
  Si  Si1569    1.0  0.85953  0.85703  0.77007  1.0000
  Si  Si1570    1.0  0.97380  0.69037  0.93673  1.0000
  Si  Si1571    1.0  0.72470  0.84453  0.78333  1.0000
  Si  Si1572    1.0  0.77530  0.82213  0.95000  1.0000
  Si  Si1573    1.0  0.72470  0.98880  0.78333  1.0000
  Si  Si1574    1.0  0.89137  0.98880  0.71667  1.0000
  Si  Si1575    1.0  0.94197  0.82213  0.88333  1.0000
  Si  Si1576    1.0  0.89137  0.84453  0.71667  1.0000
  Si  Si1577    1.0  0.94197  0.67787  0.88333  1.0000
  Al  Al31      1.0  0.74027  0.85120  0.85517  1.0000
  Si  Si1578    1.0  0.75973  0.81547  0.68850  1.0000
  Si  Si1579    1.0  0.74027  0.98213  0.85517  1.0000
  Si  Si1580    1.0  0.90693  0.98213  0.97817  1.0000
  Si  Si1581    1.0  0.92640  0.81547  0.81150  1.0000
  Si  Si1582    1.0  0.90693  0.85120  0.97817  1.0000
  Si  Si1583    1.0  0.92640  0.68453  0.81150  1.0000
  Si  Si1584    1.0  0.79180  0.85047  0.84937  1.0000
  Si  Si1585    1.0  0.70820  0.81620  0.68270  1.0000
  Si  Si1586    1.0  0.79180  0.98287  0.84937  1.0000
  Si  Si1587    1.0  0.95847  0.98287  0.98397  1.0000
  Si  Si1588    1.0  0.87487  0.81620  0.81730  1.0000
  Si  Si1589    1.0  0.95847  0.85047  0.98397  1.0000
  Si  Si1590    1.0  0.87487  0.68380  0.81730  1.0000
  Si  Si1591    1.0  0.80930  0.84533  0.77443  1.0000
  Si  Si1592    1.0  0.69070  0.82133  0.94110  1.0000
  Si  Si1593    1.0  0.80930  0.98800  0.77443  1.0000
  Si  Si1594    1.0  0.97597  0.98800  0.72557  1.0000
  Si  Si1595    1.0  0.85737  0.82133  0.89223  1.0000
  Si  Si1596    1.0  0.97597  0.84533  0.72557  1.0000
  Si  Si1597    1.0  0.85737  0.67867  0.89223  1.0000
  Si  Si1598    1.0  0.76553  0.85623  0.73990  1.0000
  Si  Si1599    1.0  0.73447  0.81043  0.90657  1.0000
  Si  Si1600    1.0  0.76553  0.97710  0.73990  1.0000
  Si  Si1601    1.0  0.93220  0.97710  0.76010  1.0000
  Si  Si1602    1.0  0.90113  0.81043  0.92677  1.0000
  Si  Si1603    1.0  0.93220  0.85623  0.76010  1.0000
  Si  Si1604    1.0  0.90113  0.68957  0.92677  1.0000
  Si  Si1605    1.0  0.80650  0.94247  0.89350  1.0000
  Si  Si1606    1.0  0.69350  0.77580  0.72683  1.0000
  Si  Si1607    1.0  0.80650  0.89087  0.89350  1.0000
  Si  Si1608    1.0  0.86017  0.72420  0.77317  1.0000
  Si  Si1609    1.0  0.97317  0.89087  0.93983  1.0000
  Si  Si1610    1.0  0.86017  0.77580  0.77317  1.0000
  Si  Si1611    1.0  0.97317  0.94247  0.93983  1.0000
  Si  Si1612    1.0  0.77173  0.95883  0.94537  1.0000
  Si  Si1613    1.0  0.72827  0.79217  0.77870  1.0000
  Si  Si1614    1.0  0.77173  0.87450  0.94537  1.0000
  Si  Si1615    1.0  0.89493  0.70783  0.72130  1.0000
  Si  Si1616    1.0  0.93840  0.87450  0.88797  1.0000
  Si  Si1617    1.0  0.89493  0.79217  0.72130  1.0000
  Si  Si1618    1.0  0.93840  0.95883  0.88797  1.0000
  Si  Si1619    1.0  0.75777  0.94260  0.68007  1.0000
  Si  Si1620    1.0  0.74223  0.77593  0.84673  1.0000
  Si  Si1621    1.0  0.75777  0.89073  0.68007  1.0000
  Si  Si1622    1.0  0.90890  0.72407  0.98660  1.0000
  Si  Si1623    1.0  0.92443  0.89073  0.81993  1.0000
  Si  Si1624    1.0  0.90890  0.77593  0.98660  1.0000
  Si  Si1625    1.0  0.92443  0.94260  0.81993  1.0000
  Si  Si1626    1.0  0.70617  0.94263  0.67277  1.0000
  Si  Si1627    1.0  0.79383  0.77597  0.83943  1.0000
  Si  Si1628    1.0  0.70617  0.89070  0.67277  1.0000
  Si  Si1629    1.0  0.79383  0.72403  0.83943  1.0000
  Si  Si1630    1.0  0.96050  0.72403  0.99390  1.0000
  Si  Si1631    1.0  0.87283  0.89070  0.82723  1.0000
  Si  Si1632    1.0  0.96050  0.77597  0.99390  1.0000
  Si  Si1633    1.0  0.87283  0.94263  0.82723  1.0000
  Si  Si1634    1.0  0.68857  0.95980  0.93623  1.0000
  Si  Si1635    1.0  0.81143  0.79313  0.76957  1.0000
  Si  Si1636    1.0  0.68857  0.87353  0.93623  1.0000
  Si  Si1637    1.0  0.81143  0.70687  0.76957  1.0000
  Si  Si1638    1.0  0.97810  0.70687  0.73043  1.0000
  Si  Si1639    1.0  0.85523  0.87353  0.89710  1.0000
  Si  Si1640    1.0  0.97810  0.79313  0.73043  1.0000
  Si  Si1641    1.0  0.85523  0.95980  0.89710  1.0000
  Si  Si1642    1.0  0.73157  0.94293  0.90307  1.0000
  Si  Si1643    1.0  0.76843  0.77627  0.73640  1.0000
  Si  Si1644    1.0  0.73157  0.89040  0.90307  1.0000
  Si  Si1645    1.0  0.76843  0.72373  0.73640  1.0000
  Si  Si1646    1.0  0.93510  0.72373  0.76360  1.0000
  Si  Si1647    1.0  0.89823  0.89040  0.93027  1.0000
  Si  Si1648    1.0  0.93510  0.77627  0.76360  1.0000
  Al  Al32      1.0  0.89823  0.94293  0.93027  1.0000
  H   H1        1.0  0.21505  0.31561  0.08235  1.0000
  H   H2        1.0  0.21271  0.33881  0.13733  1.0000
  H   H3        1.0  0.24849  0.29981  0.30731  1.0000
  H   H4        1.0  0.33813  0.22810  0.27196  1.0000
  H   H5        1.0  0.31806  0.26215  0.29605  1.0000
  H   H6        1.0  0.25828  0.29560  0.24554  1.0000
  H   H7        1.0  0.27426  0.26009  0.16160  1.0000
  H   H8        1.0  0.24339  0.28615  0.18010  1.0000
  H   H9        1.0  0.21793  0.31747  0.40440  1.0000
  H   H10       1.0  0.21541  0.34032  0.45794  1.0000
  H   H11       1.0  0.24899  0.30021  0.62503  1.0000
  H   H12       1.0  0.33882  0.22926  0.58967  1.0000
  H   H13       1.0  0.31866  0.26293  0.61281  1.0000
  H   H14       1.0  0.25965  0.29676  0.56365  1.0000
  H   H15       1.0  0.27623  0.26219  0.48164  1.0000
  H   H16       1.0  0.24537  0.28780  0.49990  1.0000
  H   H17       1.0  0.21701  0.31688  0.72295  1.0000
  H   H18       1.0  0.21364  0.33933  0.77684  1.0000
  H   H19       1.0  0.24601  0.29783  0.94761  1.0000
  H   H20       1.0  0.33690  0.22605  0.91122  1.0000
  H   H21       1.0  0.31615  0.25966  0.93483  1.0000
  H   H22       1.0  0.25698  0.29451  0.88453  1.0000
  H   H23       1.0  0.27459  0.26044  0.80092  1.0000
  H   H24       1.0  0.24339  0.28615  0.81970  1.0000
  H   H25       1.0  0.18174  0.47773  0.24566  1.0000
  H   H26       1.0  0.17930  0.52239  0.11504  1.0000
  H   H27       1.0  0.21551  0.63646  0.08302  1.0000
  H   H28       1.0  0.21244  0.61617  0.14032  1.0000
  H   H29       1.0  0.20758  0.35210  0.19835  1.0000
  H   H30       1.0  0.22332  0.36581  0.25605  1.0000
  H   H31       1.0  0.17838  0.54629  0.25036  1.0000
  H   H32       1.0  0.18211  0.38620  0.10968  1.0000
  H   H33       1.0  0.18249  0.45348  0.11015  1.0000
  H   H34       1.0  0.20679  0.61708  0.20411  1.0000
  H   H35       1.0  0.21972  0.60706  0.26473  1.0000
  H   H36       1.0  0.18348  0.47785  0.56395  1.0000
  H   H37       1.0  0.18268  0.52215  0.43604  1.0000
  H   H38       1.0  0.21888  0.63484  0.40472  1.0000
  H   H39       1.0  0.21553  0.61493  0.46044  1.0000
  H   H40       1.0  0.20972  0.35318  0.51766  1.0000
  H   H41       1.0  0.22483  0.36654  0.57370  1.0000
  H   H42       1.0  0.17997  0.54606  0.56880  1.0000
  H   H43       1.0  0.18514  0.38729  0.43109  1.0000
  H   H44       1.0  0.18589  0.45398  0.43126  1.0000
  H   H45       1.0  0.20906  0.61617  0.52295  1.0000
  H   H46       1.0  0.22119  0.60649  0.58197  1.0000
  H   H47       1.0  0.18009  0.47761  0.88494  1.0000
  H   H48       1.0  0.18095  0.52227  0.75436  1.0000
  H   H49       1.0  0.21777  0.63538  0.72235  1.0000
  H   H50       1.0  0.21344  0.61577  0.77872  1.0000
  H   H51       1.0  0.20718  0.35189  0.83770  1.0000
  H   H52       1.0  0.22152  0.36494  0.89472  1.0000
  H   H53       1.0  0.17665  0.54654  0.89002  1.0000
  H   H54       1.0  0.18370  0.38677  0.74992  1.0000
  H   H55       1.0  0.18425  0.45374  0.74948  1.0000
  H   H56       1.0  0.20622  0.61731  0.84281  1.0000
  H   H57       1.0  0.21760  0.60787  0.90311  1.0000
  H   H58       1.0  0.23395  0.67460  0.07817  1.0000
  H   H59       1.0  0.24574  0.67411  0.17205  1.0000
  H   H60       1.0  0.22254  0.68439  0.25536  1.0000
  H   H61       1.0  0.25199  0.70075  0.29470  1.0000
  H   H62       1.0  0.26252  0.70569  0.08368  1.0000
  H   H63       1.0  0.27890  0.71194  0.34143  1.0000
  H   H64       1.0  0.31154  0.73763  0.33508  1.0000
  H   H65       1.0  0.27197  0.74033  0.11826  1.0000
  H   H66       1.0  0.23708  0.67254  0.40002  1.0000
  H   H67       1.0  0.24823  0.67241  0.49131  1.0000
  H   H68       1.0  0.22378  0.68357  0.57398  1.0000
  H   H69       1.0  0.25268  0.70020  0.61239  1.0000
  H   H70       1.0  0.26539  0.70320  0.40533  1.0000
  H   H71       1.0  0.27890  0.71194  0.65838  1.0000
  H   H72       1.0  0.31163  0.73753  0.65186  1.0000
  H   H73       1.0  0.27424  0.73794  0.43931  1.0000
  H   H74       1.0  0.23613  0.67317  0.71769  1.0000
  H   H75       1.0  0.24594  0.67397  0.81016  1.0000
  H   H76       1.0  0.22101  0.68541  0.89545  1.0000
  H   H77       1.0  0.24974  0.70258  0.93461  1.0000
  H   H78       1.0  0.26443  0.70403  0.72285  1.0000
  H   H79       1.0  0.27591  0.71481  0.98176  1.0000
  H   H80       1.0  0.30902  0.74081  0.97504  1.0000
  H   H81       1.0  0.27304  0.73921  0.75793  1.0000
  H   H82       1.0  0.37194  0.22323  0.05926  1.0000
  H   H83       1.0  0.46723  0.18011  0.22347  1.0000
  H   H84       1.0  0.53288  0.18122  0.13772  1.0000
  H   H85       1.0  0.39486  0.19274  0.17155  1.0000
  H   H86       1.0  0.44591  0.19654  0.28261  1.0000
  H   H87       1.0  0.60505  0.19554  0.24015  1.0000
  H   H88       1.0  0.55467  0.16467  0.07767  1.0000
  H   H89       1.0  0.41777  0.20136  0.11958  1.0000
  H   H90       1.0  0.59415  0.19703  0.33256  1.0000
  H   H91       1.0  0.40632  0.18124  0.23083  1.0000
  H   H92       1.0  0.43377  0.17877  0.06883  1.0000
  H   H93       1.0  0.59405  0.17936  0.12958  1.0000
  H   H94       1.0  0.56566  0.18219  0.29118  1.0000
  H   H95       1.0  0.62444  0.22305  0.31348  1.0000
  H   H96       1.0  0.61851  0.20463  0.09406  1.0000
  H   H97       1.0  0.47666  0.16627  0.10995  1.0000
  H   H98       1.0  0.36384  0.19438  0.27154  1.0000
  H   H99       1.0  0.52314  0.19517  0.25102  1.0000
  H   H100      1.0  0.65616  0.22820  0.27205  1.0000
  H   H101      1.0  0.37367  0.22698  0.38145  1.0000
  H   H102      1.0  0.46745  0.18227  0.54199  1.0000
  H   H103      1.0  0.53254  0.18453  0.45803  1.0000
  H   H104      1.0  0.39579  0.19545  0.49119  1.0000
  H   H105      1.0  0.44613  0.19774  0.59980  1.0000
  H   H106      1.0  0.60444  0.19732  0.55845  1.0000
  H   H107      1.0  0.55410  0.16817  0.39977  1.0000
  H   H108      1.0  0.41874  0.20489  0.44014  1.0000
  H   H109      1.0  0.59409  0.19719  0.64990  1.0000
  H   H110      1.0  0.40686  0.18310  0.54961  1.0000
  H   H111      1.0  0.43453  0.18246  0.39100  1.0000
  H   H112      1.0  0.59314  0.18244  0.45038  1.0000
  H   H113      1.0  0.56547  0.18313  0.60899  1.0000
  H   H114      1.0  0.62420  0.22360  0.63027  1.0000
  H   H115      1.0  0.61712  0.20809  0.41546  1.0000
  H   H116      1.0  0.47690  0.16965  0.43121  1.0000
  H   H117      1.0  0.36434  0.19551  0.58993  1.0000
  H   H118      1.0  0.52300  0.19702  0.56850  1.0000
  H   H119      1.0  0.65547  0.22939  0.58962  1.0000
  H   H120      1.0  0.37331  0.22620  0.69823  1.0000
  H   H121      1.0  0.46711  0.17899  0.86235  1.0000
  H   H122      1.0  0.53277  0.18235  0.77647  1.0000
  H   H123      1.0  0.39494  0.19296  0.81046  1.0000
  H   H124      1.0  0.44543  0.19384  0.92151  1.0000
  H   H125      1.0  0.60556  0.19407  0.87925  1.0000
  H   H126      1.0  0.55427  0.16714  0.71814  1.0000
  H   H127      1.0  0.41821  0.20298  0.75786  1.0000
  H   H128      1.0  0.59529  0.19334  0.97309  1.0000
  H   H129      1.0  0.40596  0.18002  0.87040  1.0000
  H   H130      1.0  0.43433  0.18153  0.70883  1.0000
  H   H131      1.0  0.59369  0.18059  0.76919  1.0000
  H   H132      1.0  0.56623  0.17943  0.93115  1.0000
  H   H133      1.0  0.62590  0.21981  0.95283  1.0000
  H   H134      1.0  0.61767  0.20674  0.73317  1.0000
  H   H135      1.0  0.47679  0.16804  0.74973  1.0000
  H   H136      1.0  0.36292  0.19231  0.91175  1.0000
  H   H137      1.0  0.52329  0.19324  0.88926  1.0000
  H   H138      1.0  0.65736  0.22610  0.91113  1.0000
  H   H139      1.0  0.62669  0.77380  0.30177  1.0000
  H   H140      1.0  0.46723  0.81765  0.22353  1.0000
  H   H141      1.0  0.53289  0.82101  0.13765  1.0000
  H   H142      1.0  0.60506  0.80704  0.18954  1.0000
  H   H143      1.0  0.39444  0.80593  0.12075  1.0000
  H   H144      1.0  0.44573  0.83286  0.28186  1.0000
  H   H145      1.0  0.55457  0.80616  0.07849  1.0000
  H   H146      1.0  0.58179  0.79702  0.24214  1.0000
  H   H147      1.0  0.40471  0.80666  0.02691  1.0000
  H   H148      1.0  0.40631  0.81941  0.23081  1.0000
  H   H149      1.0  0.43377  0.82057  0.06885  1.0000
  H   H150      1.0  0.59404  0.81998  0.12960  1.0000
  H   H151      1.0  0.56567  0.81847  0.29117  1.0000
  H   H152      1.0  0.37410  0.78019  0.04717  1.0000
  H   H153      1.0  0.38233  0.79326  0.26683  1.0000
  H   H154      1.0  0.47671  0.80676  0.11074  1.0000
  H   H155      1.0  0.52321  0.83196  0.25027  1.0000
  H   H156      1.0  0.63708  0.80769  0.08825  1.0000
  H   H157      1.0  0.34264  0.77390  0.08887  1.0000
  H   H158      1.0  0.62633  0.77302  0.61855  1.0000
  H   H159      1.0  0.46746  0.81547  0.54197  1.0000
  H   H160      1.0  0.53255  0.81773  0.45801  1.0000
  H   H161      1.0  0.60421  0.80455  0.50881  1.0000
  H   H162      1.0  0.39556  0.80268  0.44155  1.0000
  H   H163      1.0  0.44590  0.83183  0.60023  1.0000
  H   H164      1.0  0.55387  0.80226  0.40020  1.0000
  H   H165      1.0  0.58126  0.79511  0.55986  1.0000
  H   H166      1.0  0.40591  0.80281  0.35010  1.0000
  H   H167      1.0  0.40686  0.81756  0.54962  1.0000
  H   H168      1.0  0.43453  0.81687  0.39101  1.0000
  H   H169      1.0  0.59314  0.81690  0.45039  1.0000
  H   H170      1.0  0.56547  0.81754  0.60900  1.0000
  H   H171      1.0  0.37580  0.77640  0.36973  1.0000
  H   H172      1.0  0.38288  0.79191  0.58454  1.0000
  H   H173      1.0  0.47700  0.80298  0.43150  1.0000
  H   H174      1.0  0.52310  0.83035  0.56879  1.0000
  H   H175      1.0  0.63566  0.80449  0.41007  1.0000
  H   H176      1.0  0.34453  0.77061  0.41038  1.0000
  H   H177      1.0  0.62806  0.77677  0.94074  1.0000
  H   H178      1.0  0.46712  0.81878  0.86228  1.0000
  H   H179      1.0  0.53277  0.81989  0.77653  1.0000
  H   H180      1.0  0.60514  0.80726  0.82845  1.0000
  H   H181      1.0  0.39495  0.80446  0.75985  1.0000
  H   H182      1.0  0.44533  0.83533  0.92233  1.0000
  H   H183      1.0  0.55409  0.80346  0.71739  1.0000
  H   H184      1.0  0.58223  0.79864  0.88042  1.0000
  H   H185      1.0  0.40585  0.80297  0.66744  1.0000
  H   H186      1.0  0.40595  0.82064  0.87042  1.0000
  H   H187      1.0  0.43434  0.81781  0.70882  1.0000
  H   H188      1.0  0.59368  0.81876  0.76917  1.0000
  H   H189      1.0  0.56623  0.82123  0.93117  1.0000
  H   H190      1.0  0.37556  0.77695  0.68652  1.0000
  H   H191      1.0  0.38149  0.79537  0.90594  1.0000
  H   H192      1.0  0.47686  0.80483  0.74898  1.0000
  H   H193      1.0  0.52334  0.83373  0.89005  1.0000
  H   H194      1.0  0.63616  0.80562  0.72846  1.0000
  H   H195      1.0  0.34384  0.77180  0.72795  1.0000
  H   H196      1.0  0.76387  0.32683  0.28231  1.0000
  H   H197      1.0  0.75406  0.32603  0.18984  1.0000
  H   H198      1.0  0.77899  0.31459  0.10455  1.0000
  H   H199      1.0  0.75026  0.29742  0.06539  1.0000
  H   H200      1.0  0.73557  0.29597  0.27715  1.0000
  H   H201      1.0  0.72409  0.28519  0.01824  1.0000
  H   H202      1.0  0.69098  0.25919  0.02496  1.0000
  H   H203      1.0  0.72696  0.26079  0.24207  1.0000
  H   H204      1.0  0.76292  0.32746  0.59998  1.0000
  H   H205      1.0  0.75177  0.32759  0.50869  1.0000
  H   H206      1.0  0.77622  0.31643  0.42602  1.0000
  H   H207      1.0  0.74732  0.29980  0.38761  1.0000
  H   H208      1.0  0.73461  0.29680  0.59467  1.0000
  H   H209      1.0  0.72110  0.28806  0.34162  1.0000
  H   H210      1.0  0.68837  0.26247  0.34814  1.0000
  H   H211      1.0  0.72576  0.26206  0.56069  1.0000
  H   H212      1.0  0.76605  0.32540  0.92183  1.0000
  H   H213      1.0  0.75426  0.32589  0.82795  1.0000
  H   H214      1.0  0.77746  0.31561  0.74464  1.0000
  H   H215      1.0  0.74801  0.29925  0.70530  1.0000
  H   H216      1.0  0.73748  0.29431  0.91632  1.0000
  H   H217      1.0  0.72110  0.28806  0.65857  1.0000
  H   H218      1.0  0.68846  0.26237  0.66492  1.0000
  H   H219      1.0  0.72803  0.25967  0.88174  1.0000
  H   H220      1.0  0.81905  0.47773  0.24564  1.0000
  H   H221      1.0  0.81991  0.52239  0.11506  1.0000
  H   H222      1.0  0.78223  0.36462  0.27765  1.0000
  H   H223      1.0  0.78656  0.38423  0.22128  1.0000
  H   H224      1.0  0.79282  0.64811  0.16230  1.0000
  H   H225      1.0  0.77848  0.63506  0.10528  1.0000
  H   H226      1.0  0.81630  0.61323  0.25008  1.0000
  H   H227      1.0  0.81575  0.54626  0.25052  1.0000
  H   H228      1.0  0.82335  0.45346  0.10998  1.0000
  H   H229      1.0  0.79378  0.38269  0.15719  1.0000
  H   H230      1.0  0.78240  0.39213  0.09689  1.0000
  H   H231      1.0  0.81732  0.47785  0.56396  1.0000
  H   H232      1.0  0.81652  0.52215  0.43605  1.0000
  H   H233      1.0  0.78112  0.36516  0.59528  1.0000
  H   H234      1.0  0.78447  0.38507  0.53956  1.0000
  H   H235      1.0  0.79028  0.64682  0.48234  1.0000
  H   H236      1.0  0.77517  0.63346  0.42630  1.0000
  H   H237      1.0  0.81486  0.61271  0.56891  1.0000
  H   H238      1.0  0.81411  0.54602  0.56874  1.0000
  H   H239      1.0  0.82003  0.45394  0.43120  1.0000
  H   H240      1.0  0.79094  0.38383  0.47705  1.0000
  H   H241      1.0  0.77881  0.39351  0.41803  1.0000
  H   H242      1.0  0.82070  0.47761  0.88496  1.0000
  H   H243      1.0  0.81826  0.52227  0.75434  1.0000
  H   H244      1.0  0.78449  0.36354  0.91698  1.0000
  H   H245      1.0  0.78756  0.38383  0.85968  1.0000
  H   H246      1.0  0.79242  0.64790  0.80165  1.0000
  H   H247      1.0  0.77668  0.63419  0.74395  1.0000
  H   H248      1.0  0.81789  0.61380  0.89032  1.0000
  H   H249      1.0  0.81751  0.54652  0.88985  1.0000
  H   H250      1.0  0.82162  0.45371  0.74964  1.0000
  H   H251      1.0  0.79321  0.38292  0.79589  1.0000
  H   H252      1.0  0.78028  0.39294  0.73527  1.0000
  H   H253      1.0  0.78299  0.68312  0.27705  1.0000
  H   H254      1.0  0.78636  0.66067  0.22316  1.0000
  H   H255      1.0  0.75399  0.70217  0.05239  1.0000
  H   H256      1.0  0.66310  0.77395  0.08878  1.0000
  H   H257      1.0  0.68385  0.74034  0.06517  1.0000
  H   H258      1.0  0.74302  0.70549  0.11547  1.0000
  H   H259      1.0  0.72541  0.73956  0.19908  1.0000
  H   H260      1.0  0.75661  0.71385  0.18030  1.0000
  H   H261      1.0  0.78207  0.68253  0.59560  1.0000
  H   H262      1.0  0.78459  0.65968  0.54206  1.0000
  H   H263      1.0  0.75101  0.69979  0.37497  1.0000
  H   H264      1.0  0.66118  0.77074  0.41033  1.0000
  H   H265      1.0  0.68134  0.73707  0.38719  1.0000
  H   H266      1.0  0.74035  0.70324  0.43635  1.0000
  H   H267      1.0  0.72377  0.73781  0.51836  1.0000
  H   H268      1.0  0.75463  0.71220  0.50010  1.0000
  H   H269      1.0  0.78495  0.68439  0.91765  1.0000
  H   H270      1.0  0.78729  0.66119  0.86267  1.0000
  H   H271      1.0  0.75151  0.70019  0.69269  1.0000
  H   H272      1.0  0.66187  0.77190  0.72804  1.0000
  H   H273      1.0  0.68194  0.73785  0.70395  1.0000
  H   H274      1.0  0.74172  0.70440  0.75446  1.0000
  H   H275      1.0  0.72574  0.73991  0.83840  1.0000
  H   H276      1.0  0.75661  0.71385  0.81990  1.0000
